
Circuit: *tran 

Warning: no nodes given: .plot v(2)
Note: No ".plot", ".print", or ".fourier" lines; no simulations run
