
Circuit: *111

Doing analysis at TEMP = 27.000000 and TNOM = 27.000000



No. of Data Rows : 1
v(1) = 1.000000e+01
v1#branch = -1.00000e-03
Doing analysis at TEMP = 27.000000 and TNOM = 27.000000



No. of Data Rows : 1
	Node                                  Voltage
	----                                  -------
	----	-------
	V(1)                             1.000000e+01

	Source	Current
	------	-------

	v1#branch                        -1.00000e-03

 Resistor models (Simple linear resistor)
      model                     R

        rsh                     0
     narrow                     0
      short                     0
        tc1                     0
        tc2                     0
       defw                 1e-05
          l                 1e-05
         kf                     0
         af                     0
          r                     0
     bv_max                 1e+99

 Resistor: Simple linear resistor
     device                    r1
      model                     R
 resistance                 10000
         ac                 10000
      dtemp                     0
     bv_max                 1e+99
      noisy                     1
          i                 0.001
          p                  0.01

 Vsource: Independent voltage source
     device                    v1
         dc                    10
      acmag                     0
      pulse         -
       sine         -
        sin         -
        exp         -
        pwl         -
       sffm         -
         am         -
    trnoise         -
   trrandom         -
          i                -0.001
          p                  0.01

CPU time since last call: 0.012 seconds.

Total CPU time: 0.012 seconds.

Total DRAM available = 7953.808594 MB.
DRAM currently available = 1235.605469 MB.
Total ngspice program size = 14.780273 MB.
Resident set size = 1.945312 MB.
Shared ngspice pages = 1.712891 MB.
Text (code) pages = 1.333008 MB.
Stack = 0 bytes.
Library pages = 264.000 kB.

