
Circuit: *111

Doing analysis at TEMP = 27.000000 and TNOM = 27.000000

false = 0.000000e+00
true = 1.000000e+00
boltz = 1.380620e-23
c = 2.997925e+08
e = 2.718282e+00
echarge = 1.602190e-19
i = 0.000000e+00,1.000000e+00
kelvin = -2.73150e+02
no = 0.000000e+00
pi = 3.141593e+00
planck = 6.626200e-34
yes = 1.000000e+00
Note: No ".plot", ".print", or ".fourier" lines; no simulations run
