
Circuit: *tran 

Doing analysis at TEMP = 27.000000 and TNOM = 27.000000

Warning: v1: no DC value, transient time 0 value used

Initial Transient Solution
--------------------------

Node                                   Voltage
----                                   -------
1                                            0
2                                            0
v1#branch                                    0



No. of Data Rows : 1008
                                     *tran 
                                     Transient Analysis  Sat Aug 26 10:12:14  2017
--------------------------------------------------------------------------------
Index   time            V(1)            V(2)            time            
--------------------------------------------------------------------------------
0	0.000000e+00	0.000000e+00	0.000000e+00	0.000000e+00	
1	1.000000e-05	3.141587e-02	6.159975e-04	1.000000e-05	
2	2.000000e-05	6.283144e-02	6.280698e-04	2.000000e-05	
3	4.000000e-05	1.256604e-01	6.285007e-04	4.000000e-05	
4	8.000000e-05	2.513010e-01	6.279107e-04	8.000000e-05	
5	1.600000e-04	5.024432e-01	6.278009e-04	1.600000e-04	
6	3.200000e-04	1.003617e+00	6.251406e-04	3.200000e-04	
7	6.400000e-04	1.997100e+00	6.167232e-04	6.400000e-04	
8	1.280000e-03	3.913737e+00	5.811970e-04	1.280000e-03	
9	2.280000e-03	6.565858e+00	4.796919e-04	2.280000e-03	
10	3.280000e-03	8.575267e+00	3.241339e-04	3.280000e-03	
11	4.280000e-03	9.745269e+00	1.439391e-04	4.280000e-03	
12	5.280000e-03	9.961336e+00	-5.74316e-05	5.280000e-03	
13	6.280000e-03	9.202318e+00	-2.46100e-04	6.280000e-03	
14	7.280000e-03	7.542514e+00	-4.17753e-04	7.280000e-03	
15	8.280000e-03	5.144395e+00	-5.41445e-04	8.280000e-03	
16	9.280000e-03	2.242708e+00	-6.19199e-04	9.280000e-03	
17	1.028000e-02	-8.78512e-01	-6.29285e-04	1.028000e-02	
18	1.128000e-02	-3.91374e+00	-5.84823e-04	1.128000e-02	
19	1.228000e-02	-6.56586e+00	-4.76069e-04	1.228000e-02	
20	1.328000e-02	-8.57527e+00	-3.27754e-04	1.328000e-02	
21	1.428000e-02	-9.74527e+00	-1.40322e-04	1.428000e-02	
22	1.528000e-02	-9.96134e+00	5.381703e-05	1.528000e-02	
23	1.628000e-02	-9.20232e+00	2.497117e-04	1.628000e-02	
24	1.728000e-02	-7.54251e+00	4.141444e-04	1.728000e-02	
25	1.828000e-02	-5.14440e+00	5.450506e-04	1.828000e-02	
26	1.928000e-02	-2.24271e+00	6.155963e-04	1.928000e-02	
27	2.028000e-02	8.785120e-01	6.328846e-04	2.028000e-02	
28	2.128000e-02	3.913737e+00	5.812259e-04	2.128000e-02	
29	2.228000e-02	6.565858e+00	4.796631e-04	2.228000e-02	
30	2.328000e-02	8.575267e+00	3.241627e-04	2.328000e-02	
31	2.428000e-02	9.745269e+00	1.439102e-04	2.428000e-02	
32	2.528000e-02	9.961336e+00	-5.74028e-05	2.528000e-02	
33	2.628000e-02	9.202318e+00	-2.46129e-04	2.628000e-02	
34	2.728000e-02	7.542514e+00	-4.17724e-04	2.728000e-02	
35	2.828000e-02	5.144395e+00	-5.41473e-04	2.828000e-02	
36	2.928000e-02	2.242708e+00	-6.19171e-04	2.928000e-02	
37	3.028000e-02	-8.78512e-01	-6.29313e-04	3.028000e-02	
38	3.128000e-02	-3.91374e+00	-5.84794e-04	3.128000e-02	
39	3.228000e-02	-6.56586e+00	-4.76097e-04	3.228000e-02	
40	3.328000e-02	-8.57527e+00	-3.27726e-04	3.328000e-02	
41	3.428000e-02	-9.74527e+00	-1.40350e-04	3.428000e-02	
42	3.528000e-02	-9.96134e+00	5.384560e-05	3.528000e-02	
43	3.628000e-02	-9.20232e+00	2.496831e-04	3.628000e-02	
44	3.728000e-02	-7.54251e+00	4.141730e-04	3.728000e-02	
45	3.828000e-02	-5.14440e+00	5.450221e-04	3.828000e-02	
46	3.928000e-02	-2.24271e+00	6.156248e-04	3.928000e-02	
47	4.028000e-02	8.785120e-01	6.328562e-04	4.028000e-02	
48	4.128000e-02	3.913737e+00	5.812543e-04	4.128000e-02	
49	4.228000e-02	6.565858e+00	4.796347e-04	4.228000e-02	
50	4.328000e-02	8.575267e+00	3.241911e-04	4.328000e-02	
51	4.428000e-02	9.745269e+00	1.438819e-04	4.428000e-02	
52	4.528000e-02	9.961336e+00	-5.73744e-05	4.528000e-02	
53	4.628000e-02	9.202318e+00	-2.46157e-04	4.628000e-02	
54	4.728000e-02	7.542514e+00	-4.17696e-04	4.728000e-02	

Index   time            V(1)            V(2)            time            
--------------------------------------------------------------------------------
55	4.828000e-02	5.144395e+00	-5.41502e-04	4.828000e-02	
56	4.928000e-02	2.242708e+00	-6.19142e-04	4.928000e-02	
57	5.028000e-02	-8.78512e-01	-6.29341e-04	5.028000e-02	
58	5.128000e-02	-3.91374e+00	-5.84766e-04	5.128000e-02	
59	5.228000e-02	-6.56586e+00	-4.76126e-04	5.228000e-02	
60	5.328000e-02	-8.57527e+00	-3.27697e-04	5.328000e-02	
61	5.428000e-02	-9.74527e+00	-1.40378e-04	5.428000e-02	
62	5.528000e-02	-9.96134e+00	5.387372e-05	5.528000e-02	
63	5.628000e-02	-9.20232e+00	2.496550e-04	5.628000e-02	
64	5.728000e-02	-7.54251e+00	4.142010e-04	5.728000e-02	
65	5.828000e-02	-5.14440e+00	5.449940e-04	5.828000e-02	
66	5.928000e-02	-2.24271e+00	6.156528e-04	5.928000e-02	
67	6.028000e-02	8.785120e-01	6.328282e-04	6.028000e-02	
68	6.128000e-02	3.913737e+00	5.812823e-04	6.128000e-02	
69	6.228000e-02	6.565858e+00	4.796067e-04	6.228000e-02	
70	6.328000e-02	8.575267e+00	3.242191e-04	6.328000e-02	
71	6.428000e-02	9.745269e+00	1.438539e-04	6.428000e-02	
72	6.528000e-02	9.961336e+00	-5.73465e-05	6.528000e-02	
73	6.628000e-02	9.202318e+00	-2.46185e-04	6.628000e-02	
74	6.728000e-02	7.542514e+00	-4.17668e-04	6.728000e-02	
75	6.828000e-02	5.144395e+00	-5.41530e-04	6.828000e-02	
76	6.928000e-02	2.242708e+00	-6.19114e-04	6.928000e-02	
77	7.028000e-02	-8.78512e-01	-6.29369e-04	7.028000e-02	
78	7.128000e-02	-3.91374e+00	-5.84739e-04	7.128000e-02	
79	7.228000e-02	-6.56586e+00	-4.76153e-04	7.228000e-02	
80	7.328000e-02	-8.57527e+00	-3.27670e-04	7.328000e-02	
81	7.428000e-02	-9.74527e+00	-1.40406e-04	7.428000e-02	
82	7.528000e-02	-9.96134e+00	5.390139e-05	7.528000e-02	
83	7.628000e-02	-9.20232e+00	2.496274e-04	7.628000e-02	
84	7.728000e-02	-7.54251e+00	4.142287e-04	7.728000e-02	
85	7.828000e-02	-5.14440e+00	5.449664e-04	7.828000e-02	
86	7.928000e-02	-2.24271e+00	6.156804e-04	7.928000e-02	
87	8.028000e-02	8.785120e-01	6.328006e-04	8.028000e-02	
88	8.128000e-02	3.913737e+00	5.813099e-04	8.128000e-02	
89	8.228000e-02	6.565858e+00	4.795792e-04	8.228000e-02	
90	8.328000e-02	8.575267e+00	3.242466e-04	8.328000e-02	
91	8.428000e-02	9.745269e+00	1.438265e-04	8.428000e-02	
92	8.528000e-02	9.961336e+00	-5.73191e-05	8.528000e-02	
93	8.628000e-02	9.202318e+00	-2.46212e-04	8.628000e-02	
94	8.728000e-02	7.542514e+00	-4.17641e-04	8.728000e-02	
95	8.828000e-02	5.144395e+00	-5.41557e-04	8.828000e-02	
96	8.928000e-02	2.242708e+00	-6.19087e-04	8.928000e-02	
97	9.028000e-02	-8.78512e-01	-6.29397e-04	9.028000e-02	
98	9.128000e-02	-3.91374e+00	-5.84711e-04	9.128000e-02	
99	9.228000e-02	-6.56586e+00	-4.76181e-04	9.228000e-02	
100	9.328000e-02	-8.57527e+00	-3.27642e-04	9.328000e-02	
101	9.428000e-02	-9.74527e+00	-1.40433e-04	9.428000e-02	
102	9.528000e-02	-9.96134e+00	5.392863e-05	9.528000e-02	
103	9.628000e-02	-9.20232e+00	2.496002e-04	9.628000e-02	
104	9.728000e-02	-7.54251e+00	4.142559e-04	9.728000e-02	
105	9.828000e-02	-5.14440e+00	5.449393e-04	9.828000e-02	
106	9.928000e-02	-2.24271e+00	6.157075e-04	9.928000e-02	
107	1.002800e-01	8.785120e-01	6.327735e-04	1.002800e-01	
108	1.012800e-01	3.913737e+00	5.813370e-04	1.012800e-01	
109	1.022800e-01	6.565858e+00	4.795521e-04	1.022800e-01	
110	1.032800e-01	8.575267e+00	3.242736e-04	1.032800e-01	
111	1.042800e-01	9.745269e+00	1.437994e-04	1.042800e-01	
112	1.052800e-01	9.961336e+00	-5.72921e-05	1.052800e-01	

Index   time            V(1)            V(2)            time            
--------------------------------------------------------------------------------
113	1.062800e-01	9.202318e+00	-2.46239e-04	1.062800e-01	
114	1.072800e-01	7.542514e+00	-4.17614e-04	1.072800e-01	
115	1.082800e-01	5.144395e+00	-5.41584e-04	1.082800e-01	
116	1.092800e-01	2.242708e+00	-6.19060e-04	1.092800e-01	
117	1.102800e-01	-8.78512e-01	-6.29423e-04	1.102800e-01	
118	1.112800e-01	-3.91374e+00	-5.84684e-04	1.112800e-01	
119	1.122800e-01	-6.56586e+00	-4.76207e-04	1.122800e-01	
120	1.132800e-01	-8.57527e+00	-3.27616e-04	1.132800e-01	
121	1.142800e-01	-9.74527e+00	-1.40460e-04	1.142800e-01	
122	1.152800e-01	-9.96134e+00	5.395543e-05	1.152800e-01	
123	1.162800e-01	-9.20232e+00	2.495734e-04	1.162800e-01	
124	1.172800e-01	-7.54251e+00	4.142826e-04	1.172800e-01	
125	1.182800e-01	-5.14440e+00	5.449125e-04	1.182800e-01	
126	1.192800e-01	-2.24271e+00	6.157342e-04	1.192800e-01	
127	1.202800e-01	8.785120e-01	6.327468e-04	1.202800e-01	
128	1.212800e-01	3.913737e+00	5.813636e-04	1.212800e-01	
129	1.222800e-01	6.565858e+00	4.795254e-04	1.222800e-01	
130	1.232800e-01	8.575267e+00	3.243002e-04	1.232800e-01	
131	1.242800e-01	9.745269e+00	1.437728e-04	1.242800e-01	
132	1.252800e-01	9.961336e+00	-5.72655e-05	1.252800e-01	
133	1.262800e-01	9.202318e+00	-2.46266e-04	1.262800e-01	
134	1.272800e-01	7.542514e+00	-4.17587e-04	1.272800e-01	
135	1.282800e-01	5.144395e+00	-5.41610e-04	1.282800e-01	
136	1.292800e-01	2.242708e+00	-6.19034e-04	1.292800e-01	
137	1.302800e-01	-8.78512e-01	-6.29450e-04	1.302800e-01	
138	1.312800e-01	-3.91374e+00	-5.84658e-04	1.312800e-01	
139	1.322800e-01	-6.56586e+00	-4.76234e-04	1.322800e-01	
140	1.332800e-01	-8.57527e+00	-3.27589e-04	1.332800e-01	
141	1.342800e-01	-9.74527e+00	-1.40487e-04	1.342800e-01	
142	1.352800e-01	-9.96134e+00	5.398180e-05	1.352800e-01	
143	1.362800e-01	-9.20232e+00	2.495470e-04	1.362800e-01	
144	1.372800e-01	-7.54251e+00	4.143089e-04	1.372800e-01	
145	1.382800e-01	-5.14440e+00	5.448862e-04	1.382800e-01	
146	1.392800e-01	-2.24271e+00	6.157605e-04	1.392800e-01	
147	1.402800e-01	8.785120e-01	6.327205e-04	1.402800e-01	
148	1.412800e-01	3.913737e+00	5.813899e-04	1.412800e-01	
149	1.422800e-01	6.565858e+00	4.794992e-04	1.422800e-01	
150	1.432800e-01	8.575267e+00	3.243265e-04	1.432800e-01	
151	1.442800e-01	9.745269e+00	1.437466e-04	1.442800e-01	
152	1.452800e-01	9.961336e+00	-5.72393e-05	1.452800e-01	
153	1.462800e-01	9.202318e+00	-2.46292e-04	1.462800e-01	
154	1.472800e-01	7.542514e+00	-4.17561e-04	1.472800e-01	
155	1.482800e-01	5.144395e+00	-5.41637e-04	1.482800e-01	
156	1.492800e-01	2.242708e+00	-6.19008e-04	1.492800e-01	
157	1.502800e-01	-8.78512e-01	-6.29476e-04	1.502800e-01	
158	1.512800e-01	-3.91374e+00	-5.84632e-04	1.512800e-01	
159	1.522800e-01	-6.56586e+00	-4.76260e-04	1.522800e-01	
160	1.532800e-01	-8.57527e+00	-3.27563e-04	1.532800e-01	
161	1.542800e-01	-9.74527e+00	-1.40513e-04	1.542800e-01	
162	1.552800e-01	-9.96134e+00	5.400776e-05	1.552800e-01	
163	1.562800e-01	-9.20232e+00	2.495211e-04	1.562800e-01	
164	1.572800e-01	-7.54251e+00	4.143349e-04	1.572800e-01	
165	1.582800e-01	-5.14440e+00	5.448603e-04	1.582800e-01	
166	1.592800e-01	-2.24271e+00	6.157864e-04	1.592800e-01	
167	1.602800e-01	8.785120e-01	6.326947e-04	1.602800e-01	
168	1.612800e-01	3.913737e+00	5.814157e-04	1.612800e-01	
169	1.622800e-01	6.565858e+00	4.794734e-04	1.622800e-01	
170	1.632800e-01	8.575267e+00	3.243522e-04	1.632800e-01	

Index   time            V(1)            V(2)            time            
--------------------------------------------------------------------------------
171	1.642800e-01	9.745269e+00	1.437209e-04	1.642800e-01	
172	1.652800e-01	9.961336e+00	-5.72136e-05	1.652800e-01	
173	1.662800e-01	9.202318e+00	-2.46318e-04	1.662800e-01	
174	1.672800e-01	7.542514e+00	-4.17536e-04	1.672800e-01	
175	1.682800e-01	5.144395e+00	-5.41662e-04	1.682800e-01	
176	1.692800e-01	2.242708e+00	-6.18982e-04	1.692800e-01	
177	1.702800e-01	-8.78512e-01	-6.29502e-04	1.702800e-01	
178	1.712800e-01	-3.91374e+00	-5.84606e-04	1.712800e-01	
179	1.722800e-01	-6.56586e+00	-4.76286e-04	1.722800e-01	
180	1.732800e-01	-8.57527e+00	-3.27538e-04	1.732800e-01	
181	1.742800e-01	-9.74527e+00	-1.40538e-04	1.742800e-01	
182	1.752800e-01	-9.96134e+00	5.403330e-05	1.752800e-01	
183	1.762800e-01	-9.20232e+00	2.494956e-04	1.762800e-01	
184	1.772800e-01	-7.54251e+00	4.143604e-04	1.772800e-01	
185	1.782800e-01	-5.14440e+00	5.448348e-04	1.782800e-01	
186	1.792800e-01	-2.24271e+00	6.158119e-04	1.792800e-01	
187	1.802800e-01	8.785120e-01	6.326692e-04	1.802800e-01	
188	1.812800e-01	3.913737e+00	5.814411e-04	1.812800e-01	
189	1.822800e-01	6.565858e+00	4.794480e-04	1.822800e-01	
190	1.832800e-01	8.575267e+00	3.243776e-04	1.832800e-01	
191	1.842800e-01	9.745269e+00	1.436955e-04	1.842800e-01	
192	1.852800e-01	9.961336e+00	-5.71882e-05	1.852800e-01	
193	1.862800e-01	9.202318e+00	-2.46343e-04	1.862800e-01	
194	1.872800e-01	7.542514e+00	-4.17510e-04	1.872800e-01	
195	1.882800e-01	5.144395e+00	-5.41687e-04	1.882800e-01	
196	1.892800e-01	2.242708e+00	-6.18957e-04	1.892800e-01	
197	1.902800e-01	-8.78512e-01	-6.29527e-04	1.902800e-01	
198	1.912800e-01	-3.91374e+00	-5.84581e-04	1.912800e-01	
199	1.922800e-01	-6.56586e+00	-4.76311e-04	1.922800e-01	
200	1.932800e-01	-8.57527e+00	-3.27512e-04	1.932800e-01	
201	1.942800e-01	-9.74527e+00	-1.40563e-04	1.942800e-01	
202	1.952800e-01	-9.96134e+00	5.405844e-05	1.952800e-01	
203	1.962800e-01	-9.20232e+00	2.494704e-04	1.962800e-01	
204	1.972800e-01	-7.54251e+00	4.143855e-04	1.972800e-01	
205	1.982800e-01	-5.14440e+00	5.448098e-04	1.982800e-01	
206	1.992800e-01	-2.24271e+00	6.158369e-04	1.992800e-01	
207	2.002800e-01	8.785120e-01	6.326442e-04	2.002800e-01	
208	2.012800e-01	3.913737e+00	5.814662e-04	2.012800e-01	
209	2.022800e-01	6.565858e+00	4.794230e-04	2.022800e-01	
210	2.032800e-01	8.575267e+00	3.244026e-04	2.032800e-01	
211	2.042800e-01	9.745269e+00	1.436706e-04	2.042800e-01	
212	2.052800e-01	9.961336e+00	-5.71633e-05	2.052800e-01	
213	2.062800e-01	9.202318e+00	-2.46368e-04	2.062800e-01	
214	2.072800e-01	7.542514e+00	-4.17485e-04	2.072800e-01	
215	2.082800e-01	5.144395e+00	-5.41712e-04	2.082800e-01	
216	2.092800e-01	2.242708e+00	-6.18932e-04	2.092800e-01	
217	2.102800e-01	-8.78512e-01	-6.29552e-04	2.102800e-01	
218	2.112800e-01	-3.91374e+00	-5.84556e-04	2.112800e-01	
219	2.122800e-01	-6.56586e+00	-4.76336e-04	2.122800e-01	
220	2.132800e-01	-8.57527e+00	-3.27488e-04	2.132800e-01	
221	2.142800e-01	-9.74527e+00	-1.40588e-04	2.142800e-01	
222	2.152800e-01	-9.96134e+00	5.408318e-05	2.152800e-01	
223	2.162800e-01	-9.20232e+00	2.494457e-04	2.162800e-01	
224	2.172800e-01	-7.54251e+00	4.144102e-04	2.172800e-01	
225	2.182800e-01	-5.14440e+00	5.447851e-04	2.182800e-01	
226	2.192800e-01	-2.24271e+00	6.158616e-04	2.192800e-01	
227	2.202800e-01	8.785120e-01	6.326195e-04	2.202800e-01	
228	2.212800e-01	3.913737e+00	5.814908e-04	2.212800e-01	

Index   time            V(1)            V(2)            time            
--------------------------------------------------------------------------------
229	2.222800e-01	6.565858e+00	4.793984e-04	2.222800e-01	
230	2.232800e-01	8.575267e+00	3.244272e-04	2.232800e-01	
231	2.242800e-01	9.745269e+00	1.436460e-04	2.242800e-01	
232	2.252800e-01	9.961336e+00	-5.71387e-05	2.252800e-01	
233	2.262800e-01	9.202318e+00	-2.46393e-04	2.262800e-01	
234	2.272800e-01	7.542514e+00	-4.17461e-04	2.272800e-01	
235	2.282800e-01	5.144395e+00	-5.41737e-04	2.282800e-01	
236	2.292800e-01	2.242708e+00	-6.18907e-04	2.292800e-01	
237	2.302800e-01	-8.78512e-01	-6.29576e-04	2.302800e-01	
238	2.312800e-01	-3.91374e+00	-5.84532e-04	2.312800e-01	
239	2.322800e-01	-6.56586e+00	-4.76360e-04	2.322800e-01	
240	2.332800e-01	-8.57527e+00	-3.27463e-04	2.332800e-01	
241	2.342800e-01	-9.74527e+00	-1.40612e-04	2.342800e-01	
242	2.352800e-01	-9.96134e+00	5.410753e-05	2.352800e-01	
243	2.362800e-01	-9.20232e+00	2.494214e-04	2.362800e-01	
244	2.372800e-01	-7.54251e+00	4.144345e-04	2.372800e-01	
245	2.382800e-01	-5.14440e+00	5.447608e-04	2.382800e-01	
246	2.392800e-01	-2.24271e+00	6.158859e-04	2.392800e-01	
247	2.402800e-01	8.785120e-01	6.325953e-04	2.402800e-01	
248	2.412800e-01	3.913737e+00	5.815150e-04	2.412800e-01	
249	2.422800e-01	6.565858e+00	4.793742e-04	2.422800e-01	
250	2.432800e-01	8.575267e+00	3.244514e-04	2.432800e-01	
251	2.442800e-01	9.745269e+00	1.436218e-04	2.442800e-01	
252	2.452800e-01	9.961336e+00	-5.71146e-05	2.452800e-01	
253	2.462800e-01	9.202318e+00	-2.46417e-04	2.462800e-01	
254	2.472800e-01	7.542514e+00	-4.17437e-04	2.472800e-01	
255	2.482800e-01	5.144395e+00	-5.41761e-04	2.482800e-01	
256	2.492800e-01	2.242708e+00	-6.18883e-04	2.492800e-01	
257	2.502800e-01	-8.78512e-01	-6.29600e-04	2.502800e-01	
258	2.512800e-01	-3.91374e+00	-5.84508e-04	2.512800e-01	
259	2.522800e-01	-6.56586e+00	-4.76384e-04	2.522800e-01	
260	2.532800e-01	-8.57527e+00	-3.27439e-04	2.532800e-01	
261	2.542800e-01	-9.74527e+00	-1.40636e-04	2.542800e-01	
262	2.552800e-01	-9.96134e+00	5.413149e-05	2.552800e-01	
263	2.562800e-01	-9.20232e+00	2.493975e-04	2.562800e-01	
264	2.572800e-01	-7.54251e+00	4.144584e-04	2.572800e-01	
265	2.582800e-01	-5.14440e+00	5.447369e-04	2.582800e-01	
266	2.592800e-01	-2.24271e+00	6.159097e-04	2.592800e-01	
267	2.602800e-01	8.785120e-01	6.325714e-04	2.602800e-01	
268	2.612800e-01	3.913737e+00	5.815389e-04	2.612800e-01	
269	2.622800e-01	6.565858e+00	4.793504e-04	2.622800e-01	
270	2.632800e-01	8.575267e+00	3.244752e-04	2.632800e-01	
271	2.642800e-01	9.745269e+00	1.435980e-04	2.642800e-01	
272	2.652800e-01	9.961336e+00	-5.70908e-05	2.652800e-01	
273	2.662800e-01	9.202318e+00	-2.46440e-04	2.662800e-01	
274	2.672800e-01	7.542514e+00	-4.17413e-04	2.672800e-01	
275	2.682800e-01	5.144395e+00	-5.41785e-04	2.682800e-01	
276	2.692800e-01	2.242708e+00	-6.18860e-04	2.692800e-01	
277	2.702800e-01	-8.78512e-01	-6.29624e-04	2.702800e-01	
278	2.712800e-01	-3.91374e+00	-5.84484e-04	2.712800e-01	
279	2.722800e-01	-6.56586e+00	-4.76408e-04	2.722800e-01	
280	2.732800e-01	-8.57527e+00	-3.27416e-04	2.732800e-01	
281	2.742800e-01	-9.74527e+00	-1.40660e-04	2.742800e-01	
282	2.752800e-01	-9.96134e+00	5.415507e-05	2.752800e-01	
283	2.762800e-01	-9.20232e+00	2.493739e-04	2.762800e-01	
284	2.772800e-01	-7.54251e+00	4.144819e-04	2.772800e-01	
285	2.782800e-01	-5.14440e+00	5.447134e-04	2.782800e-01	
286	2.792800e-01	-2.24271e+00	6.159332e-04	2.792800e-01	

Index   time            V(1)            V(2)            time            
--------------------------------------------------------------------------------
287	2.802800e-01	8.785120e-01	6.325479e-04	2.802800e-01	
288	2.812800e-01	3.913737e+00	5.815623e-04	2.812800e-01	
289	2.822800e-01	6.565858e+00	4.793269e-04	2.822800e-01	
290	2.832800e-01	8.575267e+00	3.244986e-04	2.832800e-01	
291	2.842800e-01	9.745269e+00	1.435746e-04	2.842800e-01	
292	2.852800e-01	9.961336e+00	-5.70674e-05	2.852800e-01	
293	2.862800e-01	9.202318e+00	-2.46464e-04	2.862800e-01	
294	2.872800e-01	7.542514e+00	-4.17390e-04	2.872800e-01	
295	2.882800e-01	5.144395e+00	-5.41808e-04	2.882800e-01	
296	2.892800e-01	2.242708e+00	-6.18836e-04	2.892800e-01	
297	2.902800e-01	-8.78512e-01	-6.29647e-04	2.902800e-01	
298	2.912800e-01	-3.91374e+00	-5.84461e-04	2.912800e-01	
299	2.922800e-01	-6.56586e+00	-4.76431e-04	2.922800e-01	
300	2.932800e-01	-8.57527e+00	-3.27392e-04	2.932800e-01	
301	2.942800e-01	-9.74527e+00	-1.40683e-04	2.942800e-01	
302	2.952800e-01	-9.96134e+00	5.417827e-05	2.952800e-01	
303	2.962800e-01	-9.20232e+00	2.493507e-04	2.962800e-01	
304	2.972800e-01	-7.54251e+00	4.145051e-04	2.972800e-01	
305	2.982800e-01	-5.14440e+00	5.446902e-04	2.982800e-01	
306	2.992800e-01	-2.24271e+00	6.159564e-04	2.992800e-01	
307	3.002800e-01	8.785120e-01	6.325248e-04	3.002800e-01	
308	3.012800e-01	3.913737e+00	5.815854e-04	3.012800e-01	
309	3.022800e-01	6.565858e+00	4.793038e-04	3.022800e-01	
310	3.032800e-01	8.575267e+00	3.245217e-04	3.032800e-01	
311	3.042800e-01	9.745269e+00	1.435516e-04	3.042800e-01	
312	3.052800e-01	9.961336e+00	-5.70444e-05	3.052800e-01	
313	3.062800e-01	9.202318e+00	-2.46487e-04	3.062800e-01	
314	3.072800e-01	7.542514e+00	-4.17367e-04	3.072800e-01	
315	3.082800e-01	5.144395e+00	-5.41831e-04	3.082800e-01	
316	3.092800e-01	2.242708e+00	-6.18813e-04	3.092800e-01	
317	3.102800e-01	-8.78512e-01	-6.29670e-04	3.102800e-01	
318	3.112800e-01	-3.91374e+00	-5.84438e-04	3.112800e-01	
319	3.122800e-01	-6.56586e+00	-4.76454e-04	3.122800e-01	
320	3.132800e-01	-8.57527e+00	-3.27370e-04	3.132800e-01	
321	3.142800e-01	-9.74527e+00	-1.40706e-04	3.142800e-01	
322	3.152800e-01	-9.96134e+00	5.420111e-05	3.152800e-01	
323	3.162800e-01	-9.20232e+00	2.493279e-04	3.162800e-01	
324	3.172800e-01	-7.54251e+00	4.145279e-04	3.172800e-01	
325	3.182800e-01	-5.14440e+00	5.446674e-04	3.182800e-01	
326	3.192800e-01	-2.24271e+00	6.159791e-04	3.192800e-01	
327	3.202800e-01	8.785120e-01	6.325021e-04	3.202800e-01	
328	3.212800e-01	3.913737e+00	5.816082e-04	3.212800e-01	
329	3.222800e-01	6.565858e+00	4.792811e-04	3.222800e-01	
330	3.232800e-01	8.575267e+00	3.245444e-04	3.232800e-01	
331	3.242800e-01	9.745269e+00	1.435289e-04	3.242800e-01	
332	3.252800e-01	9.961336e+00	-5.70217e-05	3.252800e-01	
333	3.262800e-01	9.202318e+00	-2.46510e-04	3.262800e-01	
334	3.272800e-01	7.542514e+00	-4.17344e-04	3.272800e-01	
335	3.282800e-01	5.144395e+00	-5.41854e-04	3.282800e-01	
336	3.292800e-01	2.242708e+00	-6.18791e-04	3.292800e-01	
337	3.302800e-01	-8.78512e-01	-6.29693e-04	3.302800e-01	
338	3.312800e-01	-3.91374e+00	-5.84415e-04	3.312800e-01	
339	3.322800e-01	-6.56586e+00	-4.76476e-04	3.322800e-01	
340	3.332800e-01	-8.57527e+00	-3.27347e-04	3.332800e-01	
341	3.342800e-01	-9.74527e+00	-1.40729e-04	3.342800e-01	
342	3.352800e-01	-9.96134e+00	5.422359e-05	3.352800e-01	
343	3.362800e-01	-9.20232e+00	2.493054e-04	3.362800e-01	
344	3.372800e-01	-7.54251e+00	4.145503e-04	3.372800e-01	

Index   time            V(1)            V(2)            time            
--------------------------------------------------------------------------------
345	3.382800e-01	-5.14440e+00	5.446450e-04	3.382800e-01	
346	3.392800e-01	-2.24271e+00	6.160015e-04	3.392800e-01	
347	3.402800e-01	8.785120e-01	6.324797e-04	3.402800e-01	
348	3.412800e-01	3.913737e+00	5.816305e-04	3.412800e-01	
349	3.422800e-01	6.565858e+00	4.792588e-04	3.422800e-01	
350	3.432800e-01	8.575267e+00	3.245667e-04	3.432800e-01	
351	3.442800e-01	9.745269e+00	1.435066e-04	3.442800e-01	
352	3.452800e-01	9.961336e+00	-5.69994e-05	3.452800e-01	
353	3.462800e-01	9.202318e+00	-2.46532e-04	3.462800e-01	
354	3.472800e-01	7.542514e+00	-4.17322e-04	3.472800e-01	
355	3.482800e-01	5.144395e+00	-5.41876e-04	3.482800e-01	
356	3.492800e-01	2.242708e+00	-6.18769e-04	3.492800e-01	
357	3.502800e-01	-8.78512e-01	-6.29715e-04	3.502800e-01	
358	3.512800e-01	-3.91374e+00	-5.84393e-04	3.512800e-01	
359	3.522800e-01	-6.56586e+00	-4.76498e-04	3.522800e-01	
360	3.532800e-01	-8.57527e+00	-3.27325e-04	3.532800e-01	
361	3.542800e-01	-9.74527e+00	-1.40751e-04	3.542800e-01	
362	3.552800e-01	-9.96134e+00	5.424570e-05	3.552800e-01	
363	3.562800e-01	-9.20232e+00	2.492833e-04	3.562800e-01	
364	3.572800e-01	-7.54251e+00	4.145724e-04	3.572800e-01	
365	3.582800e-01	-5.14440e+00	5.446229e-04	3.582800e-01	
366	3.592800e-01	-2.24271e+00	6.160236e-04	3.592800e-01	
367	3.602800e-01	8.785120e-01	6.324577e-04	3.602800e-01	
368	3.612800e-01	3.913737e+00	5.816525e-04	3.612800e-01	
369	3.622800e-01	6.565858e+00	4.792368e-04	3.622800e-01	
370	3.632800e-01	8.575267e+00	3.245887e-04	3.632800e-01	
371	3.642800e-01	9.745269e+00	1.434846e-04	3.642800e-01	
372	3.652800e-01	9.961336e+00	-5.69775e-05	3.652800e-01	
373	3.662800e-01	9.202318e+00	-2.46554e-04	3.662800e-01	
374	3.672800e-01	7.542514e+00	-4.17300e-04	3.672800e-01	
375	3.682800e-01	5.144395e+00	-5.41898e-04	3.682800e-01	
376	3.692800e-01	2.242708e+00	-6.18747e-04	3.692800e-01	
377	3.702800e-01	-8.78512e-01	-6.29737e-04	3.702800e-01	
378	3.712800e-01	-3.91374e+00	-5.84371e-04	3.712800e-01	
379	3.722800e-01	-6.56586e+00	-4.76520e-04	3.722800e-01	
380	3.732800e-01	-8.57527e+00	-3.27303e-04	3.732800e-01	
381	3.742800e-01	-9.74527e+00	-1.40772e-04	3.742800e-01	
382	3.752800e-01	-9.96134e+00	5.426747e-05	3.752800e-01	
383	3.762800e-01	-9.20232e+00	2.492616e-04	3.762800e-01	
384	3.772800e-01	-7.54251e+00	4.145942e-04	3.772800e-01	
385	3.782800e-01	-5.14440e+00	5.446012e-04	3.782800e-01	
386	3.792800e-01	-2.24271e+00	6.160453e-04	3.792800e-01	
387	3.802800e-01	8.785120e-01	6.324360e-04	3.802800e-01	
388	3.812800e-01	3.913737e+00	5.816742e-04	3.812800e-01	
389	3.822800e-01	6.565858e+00	4.792151e-04	3.822800e-01	
390	3.832800e-01	8.575267e+00	3.246103e-04	3.832800e-01	
391	3.842800e-01	9.745269e+00	1.434630e-04	3.842800e-01	
392	3.852800e-01	9.961336e+00	-5.69559e-05	3.852800e-01	
393	3.862800e-01	9.202318e+00	-2.46575e-04	3.862800e-01	
394	3.872800e-01	7.542514e+00	-4.17278e-04	3.872800e-01	
395	3.882800e-01	5.144395e+00	-5.41919e-04	3.882800e-01	
396	3.892800e-01	2.242708e+00	-6.18725e-04	3.892800e-01	
397	3.902800e-01	-8.78512e-01	-6.29758e-04	3.902800e-01	
398	3.912800e-01	-3.91374e+00	-5.84350e-04	3.912800e-01	
399	3.922800e-01	-6.56586e+00	-4.76542e-04	3.922800e-01	
400	3.932800e-01	-8.57527e+00	-3.27282e-04	3.932800e-01	
401	3.942800e-01	-9.74527e+00	-1.40794e-04	3.942800e-01	
402	3.952800e-01	-9.96134e+00	5.428889e-05	3.952800e-01	

Index   time            V(1)            V(2)            time            
--------------------------------------------------------------------------------
403	3.962800e-01	-9.20232e+00	2.492402e-04	3.962800e-01	
404	3.972800e-01	-7.54251e+00	4.146155e-04	3.972800e-01	
405	3.982800e-01	-5.14440e+00	5.445799e-04	3.982800e-01	
406	3.992800e-01	-2.24271e+00	6.160666e-04	3.992800e-01	
407	4.002800e-01	8.785120e-01	6.324147e-04	4.002800e-01	
408	4.012800e-01	3.913737e+00	5.816955e-04	4.012800e-01	
409	4.022800e-01	6.565858e+00	4.791938e-04	4.022800e-01	
410	4.032800e-01	8.575267e+00	3.246316e-04	4.032800e-01	
411	4.042800e-01	9.745269e+00	1.434418e-04	4.042800e-01	
412	4.052800e-01	9.961336e+00	-5.69347e-05	4.052800e-01	
413	4.062800e-01	9.202318e+00	-2.46597e-04	4.062800e-01	
414	4.072800e-01	7.542514e+00	-4.17257e-04	4.072800e-01	
415	4.082800e-01	5.144395e+00	-5.41940e-04	4.082800e-01	
416	4.092800e-01	2.242708e+00	-6.18704e-04	4.092800e-01	
417	4.102800e-01	-8.78512e-01	-6.29779e-04	4.102800e-01	
418	4.112800e-01	-3.91374e+00	-5.84329e-04	4.112800e-01	
419	4.122800e-01	-6.56586e+00	-4.76563e-04	4.122800e-01	
420	4.132800e-01	-8.57527e+00	-3.27260e-04	4.132800e-01	
421	4.142800e-01	-9.74527e+00	-1.40815e-04	4.142800e-01	
422	4.152800e-01	-9.96134e+00	5.430997e-05	4.152800e-01	
423	4.162800e-01	-9.20232e+00	2.492191e-04	4.162800e-01	
424	4.172800e-01	-7.54251e+00	4.146366e-04	4.172800e-01	
425	4.182800e-01	-5.14440e+00	5.445588e-04	4.182800e-01	
426	4.192800e-01	-2.24271e+00	6.160877e-04	4.192800e-01	
427	4.202800e-01	8.785120e-01	6.323937e-04	4.202800e-01	
428	4.212800e-01	3.913737e+00	5.817165e-04	4.212800e-01	
429	4.222800e-01	6.565858e+00	4.791729e-04	4.222800e-01	
430	4.232800e-01	8.575267e+00	3.246525e-04	4.232800e-01	
431	4.242800e-01	9.745269e+00	1.434208e-04	4.242800e-01	
432	4.252800e-01	9.961336e+00	-5.69137e-05	4.252800e-01	
433	4.262800e-01	9.202318e+00	-2.46617e-04	4.262800e-01	
434	4.272800e-01	7.542514e+00	-4.17236e-04	4.272800e-01	
435	4.282800e-01	5.144395e+00	-5.41961e-04	4.282800e-01	
436	4.292800e-01	2.242708e+00	-6.18683e-04	4.292800e-01	
437	4.302800e-01	-8.78512e-01	-6.29800e-04	4.302800e-01	
438	4.312800e-01	-3.91374e+00	-5.84308e-04	4.312800e-01	
439	4.322800e-01	-6.56586e+00	-4.76584e-04	4.322800e-01	
440	4.332800e-01	-8.57527e+00	-3.27240e-04	4.332800e-01	
441	4.342800e-01	-9.74527e+00	-1.40836e-04	4.342800e-01	
442	4.352800e-01	-9.96134e+00	5.433072e-05	4.352800e-01	
443	4.362800e-01	-9.20232e+00	2.491984e-04	4.362800e-01	
444	4.372800e-01	-7.54251e+00	4.146573e-04	4.372800e-01	
445	4.382800e-01	-5.14440e+00	5.445381e-04	4.382800e-01	
446	4.392800e-01	-2.24271e+00	6.161083e-04	4.392800e-01	
447	4.402800e-01	8.785120e-01	6.323730e-04	4.402800e-01	
448	4.412800e-01	3.913737e+00	5.817371e-04	4.412800e-01	
449	4.422800e-01	6.565858e+00	4.791522e-04	4.422800e-01	
450	4.432800e-01	8.575267e+00	3.246731e-04	4.432800e-01	
451	4.442800e-01	9.745269e+00	1.434002e-04	4.442800e-01	
452	4.452800e-01	9.961336e+00	-5.68932e-05	4.452800e-01	
453	4.462800e-01	9.202318e+00	-2.46638e-04	4.462800e-01	
454	4.472800e-01	7.542514e+00	-4.17216e-04	4.472800e-01	
455	4.482800e-01	5.144395e+00	-5.41982e-04	4.482800e-01	
456	4.492800e-01	2.242708e+00	-6.18663e-04	4.492800e-01	
457	4.502800e-01	-8.78512e-01	-6.29821e-04	4.502800e-01	
458	4.512800e-01	-3.91374e+00	-5.84287e-04	4.512800e-01	
459	4.522800e-01	-6.56586e+00	-4.76604e-04	4.522800e-01	
460	4.532800e-01	-8.57527e+00	-3.27219e-04	4.532800e-01	

Index   time            V(1)            V(2)            time            
--------------------------------------------------------------------------------
461	4.542800e-01	-9.74527e+00	-1.40856e-04	4.542800e-01	
462	4.552800e-01	-9.96134e+00	5.435114e-05	4.552800e-01	
463	4.562800e-01	-9.20232e+00	2.491780e-04	4.562800e-01	
464	4.572800e-01	-7.54251e+00	4.146777e-04	4.572800e-01	
465	4.582800e-01	-5.14440e+00	5.445178e-04	4.582800e-01	
466	4.592800e-01	-2.24271e+00	6.161287e-04	4.592800e-01	
467	4.602800e-01	8.785120e-01	6.323527e-04	4.602800e-01	
468	4.612800e-01	3.913737e+00	5.817575e-04	4.612800e-01	
469	4.622800e-01	6.565858e+00	4.791319e-04	4.622800e-01	
470	4.632800e-01	8.575267e+00	3.246934e-04	4.632800e-01	
471	4.642800e-01	9.745269e+00	1.433800e-04	4.642800e-01	
472	4.652800e-01	9.961336e+00	-5.68729e-05	4.652800e-01	
473	4.662800e-01	9.202318e+00	-2.46658e-04	4.662800e-01	
474	4.672800e-01	7.542514e+00	-4.17195e-04	4.672800e-01	
475	4.682800e-01	5.144395e+00	-5.42002e-04	4.682800e-01	
476	4.692800e-01	2.242708e+00	-6.18642e-04	4.692800e-01	
477	4.702800e-01	-8.78512e-01	-6.29841e-04	4.702800e-01	
478	4.712800e-01	-3.91374e+00	-5.84267e-04	4.712800e-01	
479	4.722800e-01	-6.56586e+00	-4.76624e-04	4.722800e-01	
480	4.732800e-01	-8.57527e+00	-3.27199e-04	4.732800e-01	
481	4.742800e-01	-9.74527e+00	-1.40876e-04	4.742800e-01	
482	4.752800e-01	-9.96134e+00	5.437123e-05	4.752800e-01	
483	4.762800e-01	-9.20232e+00	2.491579e-04	4.762800e-01	
484	4.772800e-01	-7.54251e+00	4.146978e-04	4.772800e-01	
485	4.782800e-01	-5.14440e+00	5.444977e-04	4.782800e-01	
486	4.792800e-01	-2.24271e+00	6.161487e-04	4.792800e-01	
487	4.802800e-01	8.785120e-01	6.323326e-04	4.802800e-01	
488	4.812800e-01	3.913737e+00	5.817775e-04	4.812800e-01	
489	4.822800e-01	6.565858e+00	4.791120e-04	4.822800e-01	
490	4.832800e-01	8.575267e+00	3.247134e-04	4.832800e-01	
491	4.842800e-01	9.745269e+00	1.433600e-04	4.842800e-01	
492	4.852800e-01	9.961336e+00	-5.68530e-05	4.852800e-01	
493	4.862800e-01	9.202318e+00	-2.46678e-04	4.862800e-01	
494	4.872800e-01	7.542514e+00	-4.17176e-04	4.872800e-01	
495	4.882800e-01	5.144395e+00	-5.42022e-04	4.882800e-01	
496	4.892800e-01	2.242708e+00	-6.18623e-04	4.892800e-01	
497	4.902800e-01	-8.78512e-01	-6.29861e-04	4.902800e-01	
498	4.912800e-01	-3.91374e+00	-5.84247e-04	4.912800e-01	
499	4.922800e-01	-6.56586e+00	-4.76644e-04	4.922800e-01	
500	4.932800e-01	-8.57527e+00	-3.27179e-04	4.932800e-01	
501	4.942800e-01	-9.74527e+00	-1.40896e-04	4.942800e-01	
502	4.952800e-01	-9.96134e+00	5.439101e-05	4.952800e-01	
503	4.962800e-01	-9.20232e+00	2.491381e-04	4.962800e-01	
504	4.972800e-01	-7.54251e+00	4.147175e-04	4.972800e-01	
505	4.982800e-01	-5.14440e+00	5.444780e-04	4.982800e-01	
506	4.992800e-01	-2.24271e+00	6.161684e-04	4.992800e-01	
507	5.002800e-01	8.785120e-01	6.323129e-04	5.002800e-01	
508	5.012800e-01	3.913737e+00	5.817971e-04	5.012800e-01	
509	5.022800e-01	6.565858e+00	4.790923e-04	5.022800e-01	
510	5.032800e-01	8.575267e+00	3.247330e-04	5.032800e-01	
511	5.042800e-01	9.745269e+00	1.433404e-04	5.042800e-01	
512	5.052800e-01	9.961336e+00	-5.68334e-05	5.052800e-01	
513	5.062800e-01	9.202318e+00	-2.46698e-04	5.062800e-01	
514	5.072800e-01	7.542514e+00	-4.17156e-04	5.072800e-01	
515	5.082800e-01	5.144395e+00	-5.42041e-04	5.082800e-01	
516	5.092800e-01	2.242708e+00	-6.18603e-04	5.092800e-01	
517	5.102800e-01	-8.78512e-01	-6.29880e-04	5.102800e-01	
518	5.112800e-01	-3.91374e+00	-5.84228e-04	5.112800e-01	

Index   time            V(1)            V(2)            time            
--------------------------------------------------------------------------------
519	5.122800e-01	-6.56586e+00	-4.76664e-04	5.122800e-01	
520	5.132800e-01	-8.57527e+00	-3.27160e-04	5.132800e-01	
521	5.142800e-01	-9.74527e+00	-1.40916e-04	5.142800e-01	
522	5.152800e-01	-9.96134e+00	5.441047e-05	5.152800e-01	
523	5.162800e-01	-9.20232e+00	2.491187e-04	5.162800e-01	
524	5.172800e-01	-7.54251e+00	4.147369e-04	5.172800e-01	
525	5.182800e-01	-5.14440e+00	5.444586e-04	5.182800e-01	
526	5.192800e-01	-2.24271e+00	6.161878e-04	5.192800e-01	
527	5.202800e-01	8.785120e-01	6.322936e-04	5.202800e-01	
528	5.212800e-01	3.913737e+00	5.818165e-04	5.212800e-01	
529	5.222800e-01	6.565858e+00	4.790729e-04	5.222800e-01	
530	5.232800e-01	8.575267e+00	3.247524e-04	5.232800e-01	
531	5.242800e-01	9.745269e+00	1.433211e-04	5.242800e-01	
532	5.252800e-01	9.961336e+00	-5.68141e-05	5.252800e-01	
533	5.262800e-01	9.202318e+00	-2.46717e-04	5.262800e-01	
534	5.272800e-01	7.542514e+00	-4.17137e-04	5.272800e-01	
535	5.282800e-01	5.144395e+00	-5.42061e-04	5.282800e-01	
536	5.292800e-01	2.242708e+00	-6.18584e-04	5.292800e-01	
537	5.302800e-01	-8.78512e-01	-6.29900e-04	5.302800e-01	
538	5.312800e-01	-3.91374e+00	-5.84209e-04	5.312800e-01	
539	5.322800e-01	-6.56586e+00	-4.76683e-04	5.322800e-01	
540	5.332800e-01	-8.57527e+00	-3.27141e-04	5.332800e-01	
541	5.342800e-01	-9.74527e+00	-1.40935e-04	5.342800e-01	
542	5.352800e-01	-9.96134e+00	5.442962e-05	5.352800e-01	
543	5.362800e-01	-9.20232e+00	2.490996e-04	5.362800e-01	
544	5.372800e-01	-7.54251e+00	4.147560e-04	5.372800e-01	
545	5.382800e-01	-5.14440e+00	5.444395e-04	5.382800e-01	
546	5.392800e-01	-2.24271e+00	6.162069e-04	5.392800e-01	
547	5.402800e-01	8.785120e-01	6.322745e-04	5.402800e-01	
548	5.412800e-01	3.913737e+00	5.818356e-04	5.412800e-01	
549	5.422800e-01	6.565858e+00	4.790539e-04	5.422800e-01	
550	5.432800e-01	8.575267e+00	3.247714e-04	5.432800e-01	
551	5.442800e-01	9.745269e+00	1.433020e-04	5.442800e-01	
552	5.452800e-01	9.961336e+00	-5.67951e-05	5.452800e-01	
553	5.462800e-01	9.202318e+00	-2.46736e-04	5.462800e-01	
554	5.472800e-01	7.542514e+00	-4.17118e-04	5.472800e-01	
555	5.482800e-01	5.144395e+00	-5.42080e-04	5.482800e-01	
556	5.492800e-01	2.242708e+00	-6.18565e-04	5.492800e-01	
557	5.502800e-01	-8.78512e-01	-6.29918e-04	5.502800e-01	
558	5.512800e-01	-3.91374e+00	-5.84190e-04	5.512800e-01	
559	5.522800e-01	-6.56586e+00	-4.76702e-04	5.522800e-01	
560	5.532800e-01	-8.57527e+00	-3.27122e-04	5.532800e-01	
561	5.542800e-01	-9.74527e+00	-1.40954e-04	5.542800e-01	
562	5.552800e-01	-9.96134e+00	5.444847e-05	5.552800e-01	
563	5.562800e-01	-9.20232e+00	2.490807e-04	5.562800e-01	
564	5.572800e-01	-7.54251e+00	4.147749e-04	5.572800e-01	
565	5.582800e-01	-5.14440e+00	5.444207e-04	5.582800e-01	
566	5.592800e-01	-2.24271e+00	6.162257e-04	5.592800e-01	
567	5.602800e-01	8.785120e-01	6.322557e-04	5.602800e-01	
568	5.612800e-01	3.913737e+00	5.818543e-04	5.612800e-01	
569	5.622800e-01	6.565858e+00	4.790352e-04	5.622800e-01	
570	5.632800e-01	8.575267e+00	3.247901e-04	5.632800e-01	
571	5.642800e-01	9.745269e+00	1.432833e-04	5.642800e-01	
572	5.652800e-01	9.961336e+00	-5.67764e-05	5.652800e-01	
573	5.662800e-01	9.202318e+00	-2.46755e-04	5.662800e-01	
574	5.672800e-01	7.542514e+00	-4.17099e-04	5.672800e-01	
575	5.682800e-01	5.144395e+00	-5.42098e-04	5.682800e-01	
576	5.692800e-01	2.242708e+00	-6.18546e-04	5.692800e-01	

Index   time            V(1)            V(2)            time            
--------------------------------------------------------------------------------
577	5.702800e-01	-8.78512e-01	-6.29937e-04	5.702800e-01	
578	5.712800e-01	-3.91374e+00	-5.84171e-04	5.712800e-01	
579	5.722800e-01	-6.56586e+00	-4.76720e-04	5.722800e-01	
580	5.732800e-01	-8.57527e+00	-3.27103e-04	5.732800e-01	
581	5.742800e-01	-9.74527e+00	-1.40972e-04	5.742800e-01	
582	5.752800e-01	-9.96134e+00	5.446702e-05	5.752800e-01	
583	5.762800e-01	-9.20232e+00	2.490622e-04	5.762800e-01	
584	5.772800e-01	-7.54251e+00	4.147934e-04	5.772800e-01	
585	5.782800e-01	-5.14440e+00	5.444022e-04	5.782800e-01	
586	5.792800e-01	-2.24271e+00	6.162442e-04	5.792800e-01	
587	5.802800e-01	8.785120e-01	6.322372e-04	5.802800e-01	
588	5.812800e-01	3.913737e+00	5.818728e-04	5.812800e-01	
589	5.822800e-01	6.565858e+00	4.790167e-04	5.822800e-01	
590	5.832800e-01	8.575267e+00	3.248086e-04	5.832800e-01	
591	5.842800e-01	9.745269e+00	1.432649e-04	5.842800e-01	
592	5.852800e-01	9.961336e+00	-5.67580e-05	5.852800e-01	
593	5.862800e-01	9.202318e+00	-2.46773e-04	5.862800e-01	
594	5.872800e-01	7.542514e+00	-4.17081e-04	5.872800e-01	
595	5.882800e-01	5.144395e+00	-5.42117e-04	5.882800e-01	
596	5.892800e-01	2.242708e+00	-6.18528e-04	5.892800e-01	
597	5.902800e-01	-8.78512e-01	-6.29955e-04	5.902800e-01	
598	5.912800e-01	-3.91374e+00	-5.84153e-04	5.912800e-01	
599	5.922800e-01	-6.56586e+00	-4.76739e-04	5.922800e-01	
600	5.932800e-01	-8.57527e+00	-3.27085e-04	5.932800e-01	
601	5.942800e-01	-9.74527e+00	-1.40990e-04	5.942800e-01	
602	5.952800e-01	-9.96134e+00	5.448527e-05	5.952800e-01	
603	5.962800e-01	-9.20232e+00	2.490440e-04	5.962800e-01	
604	5.972800e-01	-7.54251e+00	4.148116e-04	5.972800e-01	
605	5.982800e-01	-5.14440e+00	5.443840e-04	5.982800e-01	
606	5.992800e-01	-2.24271e+00	6.162624e-04	5.992800e-01	
607	6.002800e-01	8.785120e-01	6.322191e-04	6.002800e-01	
608	6.012800e-01	3.913737e+00	5.818910e-04	6.012800e-01	
609	6.022800e-01	6.565858e+00	4.789986e-04	6.022800e-01	
610	6.032800e-01	8.575267e+00	3.248267e-04	6.032800e-01	
611	6.042800e-01	9.745269e+00	1.432468e-04	6.042800e-01	
612	6.052800e-01	9.961336e+00	-5.67398e-05	6.052800e-01	
613	6.062800e-01	9.202318e+00	-2.46791e-04	6.062800e-01	
614	6.072800e-01	7.542514e+00	-4.17063e-04	6.072800e-01	
615	6.082800e-01	5.144395e+00	-5.42135e-04	6.082800e-01	
616	6.092800e-01	2.242708e+00	-6.18510e-04	6.092800e-01	
617	6.102800e-01	-8.78512e-01	-6.29973e-04	6.102800e-01	
618	6.112800e-01	-3.91374e+00	-5.84135e-04	6.112800e-01	
619	6.122800e-01	-6.56586e+00	-4.76757e-04	6.122800e-01	
620	6.132800e-01	-8.57527e+00	-3.27067e-04	6.132800e-01	
621	6.142800e-01	-9.74527e+00	-1.41008e-04	6.142800e-01	
622	6.152800e-01	-9.96134e+00	5.450324e-05	6.152800e-01	
623	6.162800e-01	-9.20232e+00	2.490260e-04	6.162800e-01	
624	6.172800e-01	-7.54251e+00	4.148295e-04	6.172800e-01	
625	6.182800e-01	-5.14440e+00	5.443660e-04	6.182800e-01	
626	6.192800e-01	-2.24271e+00	6.162803e-04	6.192800e-01	
627	6.202800e-01	8.785120e-01	6.322012e-04	6.202800e-01	
628	6.212800e-01	3.913737e+00	5.819088e-04	6.212800e-01	
629	6.222800e-01	6.565858e+00	4.789807e-04	6.222800e-01	
630	6.232800e-01	8.575267e+00	3.248446e-04	6.232800e-01	
631	6.242800e-01	9.745269e+00	1.432290e-04	6.242800e-01	
632	6.252800e-01	9.961336e+00	-5.67220e-05	6.252800e-01	
633	6.262800e-01	9.202318e+00	-2.46809e-04	6.262800e-01	
634	6.272800e-01	7.542514e+00	-4.17045e-04	6.272800e-01	

Index   time            V(1)            V(2)            time            
--------------------------------------------------------------------------------
635	6.282800e-01	5.144395e+00	-5.42153e-04	6.282800e-01	
636	6.292800e-01	2.242708e+00	-6.18492e-04	6.292800e-01	
637	6.302800e-01	-8.78512e-01	-6.29991e-04	6.302800e-01	
638	6.312800e-01	-3.91374e+00	-5.84117e-04	6.312800e-01	
639	6.322800e-01	-6.56586e+00	-4.76774e-04	6.322800e-01	
640	6.332800e-01	-8.57527e+00	-3.27049e-04	6.332800e-01	
641	6.342800e-01	-9.74527e+00	-1.41026e-04	6.342800e-01	
642	6.352800e-01	-9.96134e+00	5.452092e-05	6.352800e-01	
643	6.362800e-01	-9.20232e+00	2.490083e-04	6.362800e-01	
644	6.372800e-01	-7.54251e+00	4.148472e-04	6.372800e-01	
645	6.382800e-01	-5.14440e+00	5.443484e-04	6.382800e-01	
646	6.392800e-01	-2.24271e+00	6.162979e-04	6.392800e-01	
647	6.402800e-01	8.785120e-01	6.321836e-04	6.402800e-01	
648	6.412800e-01	3.913737e+00	5.819264e-04	6.412800e-01	
649	6.422800e-01	6.565858e+00	4.789631e-04	6.422800e-01	
650	6.432800e-01	8.575267e+00	3.248621e-04	6.432800e-01	
651	6.442800e-01	9.745269e+00	1.432114e-04	6.442800e-01	
652	6.452800e-01	9.961336e+00	-5.67045e-05	6.452800e-01	
653	6.462800e-01	9.202318e+00	-2.46827e-04	6.462800e-01	
654	6.472800e-01	7.542514e+00	-4.17027e-04	6.472800e-01	
655	6.482800e-01	5.144395e+00	-5.42170e-04	6.482800e-01	
656	6.492800e-01	2.242708e+00	-6.18475e-04	6.492800e-01	
657	6.502800e-01	-8.78512e-01	-6.30009e-04	6.502800e-01	
658	6.512800e-01	-3.91374e+00	-5.84100e-04	6.512800e-01	
659	6.522800e-01	-6.56586e+00	-4.76792e-04	6.522800e-01	
660	6.532800e-01	-8.57527e+00	-3.27032e-04	6.532800e-01	
661	6.542800e-01	-9.74527e+00	-1.41043e-04	6.542800e-01	
662	6.552800e-01	-9.96134e+00	5.453832e-05	6.552800e-01	
663	6.562800e-01	-9.20232e+00	2.489910e-04	6.562800e-01	
664	6.572800e-01	-7.54251e+00	4.148646e-04	6.572800e-01	
665	6.582800e-01	-5.14440e+00	5.443310e-04	6.582800e-01	
666	6.592800e-01	-2.24271e+00	6.163153e-04	6.592800e-01	
667	6.602800e-01	8.785120e-01	6.321662e-04	6.602800e-01	
668	6.612800e-01	3.913737e+00	5.819437e-04	6.612800e-01	
669	6.622800e-01	6.565858e+00	4.789458e-04	6.622800e-01	
670	6.632800e-01	8.575267e+00	3.248794e-04	6.632800e-01	
671	6.642800e-01	9.745269e+00	1.431941e-04	6.642800e-01	
672	6.652800e-01	9.961336e+00	-5.66872e-05	6.652800e-01	
673	6.662800e-01	9.202318e+00	-2.46844e-04	6.662800e-01	
674	6.672800e-01	7.542514e+00	-4.17010e-04	6.672800e-01	
675	6.682800e-01	5.144395e+00	-5.42187e-04	6.682800e-01	
676	6.692800e-01	2.242708e+00	-6.18457e-04	6.692800e-01	
677	6.702800e-01	-8.78512e-01	-6.30026e-04	6.702800e-01	
678	6.712800e-01	-3.91374e+00	-5.84082e-04	6.712800e-01	
679	6.722800e-01	-6.56586e+00	-4.76809e-04	6.722800e-01	
680	6.732800e-01	-8.57527e+00	-3.27015e-04	6.732800e-01	
681	6.742800e-01	-9.74527e+00	-1.41061e-04	6.742800e-01	
682	6.752800e-01	-9.96134e+00	5.455544e-05	6.752800e-01	
683	6.762800e-01	-9.20232e+00	2.489738e-04	6.762800e-01	
684	6.772800e-01	-7.54251e+00	4.148817e-04	6.772800e-01	
685	6.782800e-01	-5.14440e+00	5.443140e-04	6.782800e-01	
686	6.792800e-01	-2.24271e+00	6.163323e-04	6.792800e-01	
687	6.802800e-01	8.785120e-01	6.321492e-04	6.802800e-01	
688	6.812800e-01	3.913737e+00	5.819608e-04	6.812800e-01	
689	6.822800e-01	6.565858e+00	4.789288e-04	6.822800e-01	
690	6.832800e-01	8.575267e+00	3.248964e-04	6.832800e-01	
691	6.842800e-01	9.745269e+00	1.431771e-04	6.842800e-01	
692	6.852800e-01	9.961336e+00	-5.66702e-05	6.852800e-01	

Index   time            V(1)            V(2)            time            
--------------------------------------------------------------------------------
693	6.862800e-01	9.202318e+00	-2.46861e-04	6.862800e-01	
694	6.872800e-01	7.542514e+00	-4.16993e-04	6.872800e-01	
695	6.882800e-01	5.144395e+00	-5.42204e-04	6.882800e-01	
696	6.892800e-01	2.242708e+00	-6.18440e-04	6.892800e-01	
697	6.902800e-01	-8.78512e-01	-6.30043e-04	6.902800e-01	
698	6.912800e-01	-3.91374e+00	-5.84065e-04	6.912800e-01	
699	6.922800e-01	-6.56586e+00	-4.76826e-04	6.922800e-01	
700	6.932800e-01	-8.57527e+00	-3.26998e-04	6.932800e-01	
701	6.942800e-01	-9.74527e+00	-1.41077e-04	6.942800e-01	
702	6.952800e-01	-9.96134e+00	5.457229e-05	6.952800e-01	
703	6.962800e-01	-9.20232e+00	2.489570e-04	6.962800e-01	
704	6.972800e-01	-7.54251e+00	4.148985e-04	6.972800e-01	
705	6.982800e-01	-5.14440e+00	5.442971e-04	6.982800e-01	
706	6.992800e-01	-2.24271e+00	6.163491e-04	6.992800e-01	
707	7.002800e-01	8.785120e-01	6.321324e-04	7.002800e-01	
708	7.012800e-01	3.913737e+00	5.819776e-04	7.012800e-01	
709	7.022800e-01	6.565858e+00	4.789120e-04	7.022800e-01	
710	7.032800e-01	8.575267e+00	3.249132e-04	7.032800e-01	
711	7.042800e-01	9.745269e+00	1.431604e-04	7.042800e-01	
712	7.052800e-01	9.961336e+00	-5.66535e-05	7.052800e-01	
713	7.062800e-01	9.202318e+00	-2.46877e-04	7.062800e-01	
714	7.072800e-01	7.542514e+00	-4.16976e-04	7.072800e-01	
715	7.082800e-01	5.144395e+00	-5.42221e-04	7.082800e-01	
716	7.092800e-01	2.242708e+00	-6.18424e-04	7.092800e-01	
717	7.102800e-01	-8.78512e-01	-6.30059e-04	7.102800e-01	
718	7.112800e-01	-3.91374e+00	-5.84049e-04	7.112800e-01	
719	7.122800e-01	-6.56586e+00	-4.76842e-04	7.122800e-01	
720	7.132800e-01	-8.57527e+00	-3.26981e-04	7.132800e-01	
721	7.142800e-01	-9.74527e+00	-1.41094e-04	7.142800e-01	
722	7.152800e-01	-9.96134e+00	5.458887e-05	7.152800e-01	
723	7.162800e-01	-9.20232e+00	2.489404e-04	7.162800e-01	
724	7.172800e-01	-7.54251e+00	4.149150e-04	7.172800e-01	
725	7.182800e-01	-5.14440e+00	5.442806e-04	7.182800e-01	
726	7.192800e-01	-2.24271e+00	6.163657e-04	7.192800e-01	
727	7.202800e-01	8.785120e-01	6.321159e-04	7.202800e-01	
728	7.212800e-01	3.913737e+00	5.819941e-04	7.212800e-01	
729	7.222800e-01	6.565858e+00	4.788955e-04	7.222800e-01	
730	7.232800e-01	8.575267e+00	3.249297e-04	7.232800e-01	
731	7.242800e-01	9.745269e+00	1.431439e-04	7.242800e-01	
732	7.252800e-01	9.961336e+00	-5.66371e-05	7.252800e-01	
733	7.262800e-01	9.202318e+00	-2.46894e-04	7.262800e-01	
734	7.272800e-01	7.542514e+00	-4.16960e-04	7.272800e-01	
735	7.282800e-01	5.144395e+00	-5.42237e-04	7.282800e-01	
736	7.292800e-01	2.242708e+00	-6.18407e-04	7.292800e-01	
737	7.302800e-01	-8.78512e-01	-6.30076e-04	7.302800e-01	
738	7.312800e-01	-3.91374e+00	-5.84032e-04	7.312800e-01	
739	7.322800e-01	-6.56586e+00	-4.76859e-04	7.322800e-01	
740	7.332800e-01	-8.57527e+00	-3.26965e-04	7.332800e-01	
741	7.342800e-01	-9.74527e+00	-1.41110e-04	7.342800e-01	
742	7.352800e-01	-9.96134e+00	5.460519e-05	7.352800e-01	
743	7.362800e-01	-9.20232e+00	2.489241e-04	7.362800e-01	
744	7.372800e-01	-7.54251e+00	4.149313e-04	7.372800e-01	
745	7.382800e-01	-5.14440e+00	5.442643e-04	7.382800e-01	
746	7.392800e-01	-2.24271e+00	6.163819e-04	7.392800e-01	
747	7.402800e-01	8.785120e-01	6.320996e-04	7.402800e-01	
748	7.412800e-01	3.913737e+00	5.820103e-04	7.412800e-01	
749	7.422800e-01	6.565858e+00	4.788793e-04	7.422800e-01	
750	7.432800e-01	8.575267e+00	3.249459e-04	7.432800e-01	

Index   time            V(1)            V(2)            time            
--------------------------------------------------------------------------------
751	7.442800e-01	9.745269e+00	1.431277e-04	7.442800e-01	
752	7.452800e-01	9.961336e+00	-5.66209e-05	7.452800e-01	
753	7.462800e-01	9.202318e+00	-2.46910e-04	7.462800e-01	
754	7.472800e-01	7.542514e+00	-4.16944e-04	7.472800e-01	
755	7.482800e-01	5.144395e+00	-5.42253e-04	7.482800e-01	
756	7.492800e-01	2.242708e+00	-6.18391e-04	7.492800e-01	
757	7.502800e-01	-8.78512e-01	-6.30092e-04	7.502800e-01	
758	7.512800e-01	-3.91374e+00	-5.84016e-04	7.512800e-01	
759	7.522800e-01	-6.56586e+00	-4.76875e-04	7.522800e-01	
760	7.532800e-01	-8.57527e+00	-3.26949e-04	7.532800e-01	
761	7.542800e-01	-9.74527e+00	-1.41126e-04	7.542800e-01	
762	7.552800e-01	-9.96134e+00	5.462125e-05	7.552800e-01	
763	7.562800e-01	-9.20232e+00	2.489081e-04	7.562800e-01	
764	7.572800e-01	-7.54251e+00	4.149474e-04	7.572800e-01	
765	7.582800e-01	-5.14440e+00	5.442483e-04	7.582800e-01	
766	7.592800e-01	-2.24271e+00	6.163979e-04	7.592800e-01	
767	7.602800e-01	8.785120e-01	6.320836e-04	7.602800e-01	
768	7.612800e-01	3.913737e+00	5.820263e-04	7.612800e-01	
769	7.622800e-01	6.565858e+00	4.788633e-04	7.622800e-01	
770	7.632800e-01	8.575267e+00	3.249618e-04	7.632800e-01	
771	7.642800e-01	9.745269e+00	1.431118e-04	7.642800e-01	
772	7.652800e-01	9.961336e+00	-5.66049e-05	7.652800e-01	
773	7.662800e-01	9.202318e+00	-2.46926e-04	7.662800e-01	
774	7.672800e-01	7.542514e+00	-4.16928e-04	7.672800e-01	
775	7.682800e-01	5.144395e+00	-5.42269e-04	7.682800e-01	
776	7.692800e-01	2.242708e+00	-6.18375e-04	7.692800e-01	
777	7.702800e-01	-8.78512e-01	-6.30108e-04	7.702800e-01	
778	7.712800e-01	-3.91374e+00	-5.84000e-04	7.712800e-01	
779	7.722800e-01	-6.56586e+00	-4.76891e-04	7.722800e-01	
780	7.732800e-01	-8.57527e+00	-3.26933e-04	7.732800e-01	
781	7.742800e-01	-9.74527e+00	-1.41142e-04	7.742800e-01	
782	7.752800e-01	-9.96134e+00	5.463706e-05	7.752800e-01	
783	7.762800e-01	-9.20232e+00	2.488923e-04	7.762800e-01	
784	7.772800e-01	-7.54251e+00	4.149632e-04	7.772800e-01	
785	7.782800e-01	-5.14440e+00	5.442325e-04	7.782800e-01	
786	7.792800e-01	-2.24271e+00	6.164137e-04	7.792800e-01	
787	7.802800e-01	8.785120e-01	6.320679e-04	7.802800e-01	
788	7.812800e-01	3.913737e+00	5.820420e-04	7.812800e-01	
789	7.822800e-01	6.565858e+00	4.788476e-04	7.822800e-01	
790	7.832800e-01	8.575267e+00	3.249775e-04	7.832800e-01	
791	7.842800e-01	9.745269e+00	1.430961e-04	7.842800e-01	
792	7.852800e-01	9.961336e+00	-5.65893e-05	7.852800e-01	
793	7.862800e-01	9.202318e+00	-2.46942e-04	7.862800e-01	
794	7.872800e-01	7.542514e+00	-4.16912e-04	7.872800e-01	
795	7.882800e-01	5.144395e+00	-5.42285e-04	7.882800e-01	
796	7.892800e-01	2.242708e+00	-6.18360e-04	7.892800e-01	
797	7.902800e-01	-8.78512e-01	-6.30123e-04	7.902800e-01	
798	7.912800e-01	-3.91374e+00	-5.83985e-04	7.912800e-01	
799	7.922800e-01	-6.56586e+00	-4.76906e-04	7.922800e-01	
800	7.932800e-01	-8.57527e+00	-3.26917e-04	7.932800e-01	
801	7.942800e-01	-9.74527e+00	-1.41158e-04	7.942800e-01	
802	7.952800e-01	-9.96134e+00	5.465262e-05	7.952800e-01	
803	7.962800e-01	-9.20232e+00	2.488767e-04	7.962800e-01	
804	7.972800e-01	-7.54251e+00	4.149787e-04	7.972800e-01	
805	7.982800e-01	-5.14440e+00	5.442170e-04	7.982800e-01	
806	7.992800e-01	-2.24271e+00	6.164292e-04	7.992800e-01	
807	8.002800e-01	8.785120e-01	6.320524e-04	8.002800e-01	
808	8.012800e-01	3.913737e+00	5.820575e-04	8.012800e-01	

Index   time            V(1)            V(2)            time            
--------------------------------------------------------------------------------
809	8.022800e-01	6.565858e+00	4.788322e-04	8.022800e-01	
810	8.032800e-01	8.575267e+00	3.249930e-04	8.032800e-01	
811	8.042800e-01	9.745269e+00	1.430806e-04	8.042800e-01	
812	8.052800e-01	9.961336e+00	-5.65738e-05	8.052800e-01	
813	8.062800e-01	9.202318e+00	-2.46957e-04	8.062800e-01	
814	8.072800e-01	7.542514e+00	-4.16897e-04	8.072800e-01	
815	8.082800e-01	5.144395e+00	-5.42300e-04	8.082800e-01	
816	8.092800e-01	2.242708e+00	-6.18344e-04	8.092800e-01	
817	8.102800e-01	-8.78512e-01	-6.30139e-04	8.102800e-01	
818	8.112800e-01	-3.91374e+00	-5.83970e-04	8.112800e-01	
819	8.122800e-01	-6.56586e+00	-4.76922e-04	8.122800e-01	
820	8.132800e-01	-8.57527e+00	-3.26902e-04	8.132800e-01	
821	8.142800e-01	-9.74527e+00	-1.41173e-04	8.142800e-01	
822	8.152800e-01	-9.96134e+00	5.466792e-05	8.152800e-01	
823	8.162800e-01	-9.20232e+00	2.488614e-04	8.162800e-01	
824	8.172800e-01	-7.54251e+00	4.149940e-04	8.172800e-01	
825	8.182800e-01	-5.14440e+00	5.442017e-04	8.182800e-01	
826	8.192800e-01	-2.24271e+00	6.164445e-04	8.192800e-01	
827	8.202800e-01	8.785120e-01	6.320371e-04	8.202800e-01	
828	8.212800e-01	3.913737e+00	5.820727e-04	8.212800e-01	
829	8.222800e-01	6.565858e+00	4.788169e-04	8.222800e-01	
830	8.232800e-01	8.575267e+00	3.250082e-04	8.232800e-01	
831	8.242800e-01	9.745269e+00	1.430654e-04	8.242800e-01	
832	8.252800e-01	9.961336e+00	-5.65587e-05	8.252800e-01	
833	8.262800e-01	9.202318e+00	-2.46972e-04	8.262800e-01	
834	8.272800e-01	7.542514e+00	-4.16882e-04	8.272800e-01	
835	8.282800e-01	5.144395e+00	-5.42316e-04	8.282800e-01	
836	8.292800e-01	2.242708e+00	-6.18329e-04	8.292800e-01	
837	8.302800e-01	-8.78512e-01	-6.30154e-04	8.302800e-01	
838	8.312800e-01	-3.91374e+00	-5.83954e-04	8.312800e-01	
839	8.322800e-01	-6.56586e+00	-4.76937e-04	8.322800e-01	
840	8.332800e-01	-8.57527e+00	-3.26887e-04	8.332800e-01	
841	8.342800e-01	-9.74527e+00	-1.41188e-04	8.342800e-01	
842	8.352800e-01	-9.96134e+00	5.468299e-05	8.352800e-01	
843	8.362800e-01	-9.20232e+00	2.488464e-04	8.362800e-01	
844	8.372800e-01	-7.54251e+00	4.150090e-04	8.372800e-01	
845	8.382800e-01	-5.14440e+00	5.441867e-04	8.382800e-01	
846	8.392800e-01	-2.24271e+00	6.164595e-04	8.392800e-01	
847	8.402800e-01	8.785120e-01	6.320221e-04	8.402800e-01	
848	8.412800e-01	3.913737e+00	5.820877e-04	8.412800e-01	
849	8.422800e-01	6.565858e+00	4.788019e-04	8.422800e-01	
850	8.432800e-01	8.575267e+00	3.250232e-04	8.432800e-01	
851	8.442800e-01	9.745269e+00	1.430505e-04	8.442800e-01	
852	8.452800e-01	9.961336e+00	-5.65437e-05	8.452800e-01	
853	8.462800e-01	9.202318e+00	-2.46987e-04	8.462800e-01	
854	8.472800e-01	7.542514e+00	-4.16867e-04	8.472800e-01	
855	8.482800e-01	5.144395e+00	-5.42330e-04	8.482800e-01	
856	8.492800e-01	2.242708e+00	-6.18314e-04	8.492800e-01	
857	8.502800e-01	-8.78512e-01	-6.30169e-04	8.502800e-01	
858	8.512800e-01	-3.91374e+00	-5.83940e-04	8.512800e-01	
859	8.522800e-01	-6.56586e+00	-4.76952e-04	8.522800e-01	
860	8.532800e-01	-8.57527e+00	-3.26872e-04	8.532800e-01	
861	8.542800e-01	-9.74527e+00	-1.41203e-04	8.542800e-01	
862	8.552800e-01	-9.96134e+00	5.469782e-05	8.552800e-01	
863	8.562800e-01	-9.20232e+00	2.488316e-04	8.562800e-01	
864	8.572800e-01	-7.54251e+00	4.150238e-04	8.572800e-01	
865	8.582800e-01	-5.14440e+00	5.441719e-04	8.582800e-01	
866	8.592800e-01	-2.24271e+00	6.164743e-04	8.592800e-01	

Index   time            V(1)            V(2)            time            
--------------------------------------------------------------------------------
867	8.602800e-01	8.785120e-01	6.320074e-04	8.602800e-01	
868	8.612800e-01	3.913737e+00	5.821025e-04	8.612800e-01	
869	8.622800e-01	6.565858e+00	4.787872e-04	8.622800e-01	
870	8.632800e-01	8.575267e+00	3.250379e-04	8.632800e-01	
871	8.642800e-01	9.745269e+00	1.430358e-04	8.642800e-01	
872	8.652800e-01	9.961336e+00	-5.65290e-05	8.652800e-01	
873	8.662800e-01	9.202318e+00	-2.47002e-04	8.662800e-01	
874	8.672800e-01	7.542514e+00	-4.16852e-04	8.672800e-01	
875	8.682800e-01	5.144395e+00	-5.42345e-04	8.682800e-01	
876	8.692800e-01	2.242708e+00	-6.18300e-04	8.692800e-01	
877	8.702800e-01	-8.78512e-01	-6.30183e-04	8.702800e-01	
878	8.712800e-01	-3.91374e+00	-5.83925e-04	8.712800e-01	
879	8.722800e-01	-6.56586e+00	-4.76966e-04	8.722800e-01	
880	8.732800e-01	-8.57527e+00	-3.26857e-04	8.732800e-01	
881	8.742800e-01	-9.74527e+00	-1.41218e-04	8.742800e-01	
882	8.752800e-01	-9.96134e+00	5.471241e-05	8.752800e-01	
883	8.762800e-01	-9.20232e+00	2.488170e-04	8.762800e-01	
884	8.772800e-01	-7.54251e+00	4.150384e-04	8.772800e-01	
885	8.782800e-01	-5.14440e+00	5.441574e-04	8.782800e-01	
886	8.792800e-01	-2.24271e+00	6.164888e-04	8.792800e-01	
887	8.802800e-01	8.785120e-01	6.319928e-04	8.802800e-01	
888	8.812800e-01	3.913737e+00	5.821170e-04	8.812800e-01	
889	8.822800e-01	6.565858e+00	4.787727e-04	8.822800e-01	
890	8.832800e-01	8.575267e+00	3.250524e-04	8.832800e-01	
891	8.842800e-01	9.745269e+00	1.430213e-04	8.842800e-01	
892	8.852800e-01	9.961336e+00	-5.65145e-05	8.852800e-01	
893	8.862800e-01	9.202318e+00	-2.47016e-04	8.862800e-01	
894	8.872800e-01	7.542514e+00	-4.16838e-04	8.872800e-01	
895	8.882800e-01	5.144395e+00	-5.42360e-04	8.882800e-01	
896	8.892800e-01	2.242708e+00	-6.18285e-04	8.892800e-01	
897	8.902800e-01	-8.78512e-01	-6.30198e-04	8.902800e-01	
898	8.912800e-01	-3.91374e+00	-5.83910e-04	8.912800e-01	
899	8.922800e-01	-6.56586e+00	-4.76981e-04	8.922800e-01	
900	8.932800e-01	-8.57527e+00	-3.26843e-04	8.932800e-01	
901	8.942800e-01	-9.74527e+00	-1.41232e-04	8.942800e-01	
902	8.952800e-01	-9.96134e+00	5.472677e-05	8.952800e-01	
903	8.962800e-01	-9.20232e+00	2.488027e-04	8.962800e-01	
904	8.972800e-01	-7.54251e+00	4.150527e-04	8.972800e-01	
905	8.982800e-01	-5.14440e+00	5.441430e-04	8.982800e-01	
906	8.992800e-01	-2.24271e+00	6.165031e-04	8.992800e-01	
907	9.002800e-01	8.785120e-01	6.319785e-04	9.002800e-01	
908	9.012800e-01	3.913737e+00	5.821313e-04	9.012800e-01	
909	9.022800e-01	6.565858e+00	4.787584e-04	9.022800e-01	
910	9.032800e-01	8.575267e+00	3.250667e-04	9.032800e-01	
911	9.042800e-01	9.745269e+00	1.430070e-04	9.042800e-01	
912	9.052800e-01	9.961336e+00	-5.65003e-05	9.052800e-01	
913	9.062800e-01	9.202318e+00	-2.47031e-04	9.062800e-01	
914	9.072800e-01	7.542514e+00	-4.16823e-04	9.072800e-01	
915	9.082800e-01	5.144395e+00	-5.42374e-04	9.082800e-01	
916	9.092800e-01	2.242708e+00	-6.18271e-04	9.092800e-01	
917	9.102800e-01	-8.78512e-01	-6.30212e-04	9.102800e-01	
918	9.112800e-01	-3.91374e+00	-5.83896e-04	9.112800e-01	
919	9.122800e-01	-6.56586e+00	-4.76995e-04	9.122800e-01	
920	9.132800e-01	-8.57527e+00	-3.26829e-04	9.132800e-01	
921	9.142800e-01	-9.74527e+00	-1.41246e-04	9.142800e-01	
922	9.152800e-01	-9.96134e+00	5.474090e-05	9.152800e-01	
923	9.162800e-01	-9.20232e+00	2.487885e-04	9.162800e-01	
924	9.172800e-01	-7.54251e+00	4.150668e-04	9.172800e-01	

Index   time            V(1)            V(2)            time            
--------------------------------------------------------------------------------
925	9.182800e-01	-5.14440e+00	5.441289e-04	9.182800e-01	
926	9.192800e-01	-2.24271e+00	6.165172e-04	9.192800e-01	
927	9.202800e-01	8.785120e-01	6.319645e-04	9.202800e-01	
928	9.212800e-01	3.913737e+00	5.821454e-04	9.212800e-01	
929	9.222800e-01	6.565858e+00	4.787444e-04	9.222800e-01	
930	9.232800e-01	8.575267e+00	3.250807e-04	9.232800e-01	
931	9.242800e-01	9.745269e+00	1.429930e-04	9.242800e-01	
932	9.252800e-01	9.961336e+00	-5.64863e-05	9.252800e-01	
933	9.262800e-01	9.202318e+00	-2.47045e-04	9.262800e-01	
934	9.272800e-01	7.542514e+00	-4.16809e-04	9.272800e-01	
935	9.282800e-01	5.144395e+00	-5.42388e-04	9.282800e-01	
936	9.292800e-01	2.242708e+00	-6.18257e-04	9.292800e-01	
937	9.302800e-01	-8.78512e-01	-6.30226e-04	9.302800e-01	
938	9.312800e-01	-3.91374e+00	-5.83882e-04	9.312800e-01	
939	9.322800e-01	-6.56586e+00	-4.77009e-04	9.322800e-01	
940	9.332800e-01	-8.57527e+00	-3.26815e-04	9.332800e-01	
941	9.342800e-01	-9.74527e+00	-1.41260e-04	9.342800e-01	
942	9.352800e-01	-9.96134e+00	5.475480e-05	9.352800e-01	
943	9.362800e-01	-9.20232e+00	2.487746e-04	9.362800e-01	
944	9.372800e-01	-7.54251e+00	4.150807e-04	9.372800e-01	
945	9.382800e-01	-5.14440e+00	5.441151e-04	9.382800e-01	
946	9.392800e-01	-2.24271e+00	6.165311e-04	9.392800e-01	
947	9.402800e-01	8.785120e-01	6.319506e-04	9.402800e-01	
948	9.412800e-01	3.913737e+00	5.821592e-04	9.412800e-01	
949	9.422800e-01	6.565858e+00	4.787305e-04	9.422800e-01	
950	9.432800e-01	8.575267e+00	3.250945e-04	9.432800e-01	
951	9.442800e-01	9.745269e+00	1.429792e-04	9.442800e-01	
952	9.452800e-01	9.961336e+00	-5.64725e-05	9.452800e-01	
953	9.462800e-01	9.202318e+00	-2.47058e-04	9.462800e-01	
954	9.472800e-01	7.542514e+00	-4.16796e-04	9.472800e-01	
955	9.482800e-01	5.144395e+00	-5.42402e-04	9.482800e-01	
956	9.492800e-01	2.242708e+00	-6.18243e-04	9.492800e-01	
957	9.502800e-01	-8.78512e-01	-6.30240e-04	9.502800e-01	
958	9.512800e-01	-3.91374e+00	-5.83869e-04	9.512800e-01	
959	9.522800e-01	-6.56586e+00	-4.77022e-04	9.522800e-01	
960	9.532800e-01	-8.57527e+00	-3.26801e-04	9.532800e-01	
961	9.542800e-01	-9.74527e+00	-1.41274e-04	9.542800e-01	
962	9.552800e-01	-9.96134e+00	5.476849e-05	9.552800e-01	
963	9.562800e-01	-9.20232e+00	2.487610e-04	9.562800e-01	
964	9.572800e-01	-7.54251e+00	4.150944e-04	9.572800e-01	
965	9.582800e-01	-5.14440e+00	5.441014e-04	9.582800e-01	
966	9.592800e-01	-2.24271e+00	6.165447e-04	9.592800e-01	
967	9.602800e-01	8.785120e-01	6.319370e-04	9.602800e-01	
968	9.612800e-01	3.913737e+00	5.821728e-04	9.612800e-01	
969	9.622800e-01	6.565858e+00	4.787169e-04	9.622800e-01	
970	9.632800e-01	8.575267e+00	3.251081e-04	9.632800e-01	
971	9.642800e-01	9.745269e+00	1.429656e-04	9.642800e-01	
972	9.652800e-01	9.961336e+00	-5.64589e-05	9.652800e-01	
973	9.662800e-01	9.202318e+00	-2.47072e-04	9.662800e-01	
974	9.672800e-01	7.542514e+00	-4.16782e-04	9.672800e-01	
975	9.682800e-01	5.144395e+00	-5.42415e-04	9.682800e-01	
976	9.692800e-01	2.242708e+00	-6.18230e-04	9.692800e-01	
977	9.702800e-01	-8.78512e-01	-6.30253e-04	9.702800e-01	
978	9.712800e-01	-3.91374e+00	-5.83855e-04	9.712800e-01	
979	9.722800e-01	-6.56586e+00	-4.77036e-04	9.722800e-01	
980	9.732800e-01	-8.57527e+00	-3.26788e-04	9.732800e-01	
981	9.742800e-01	-9.74527e+00	-1.41287e-04	9.742800e-01	
982	9.752800e-01	-9.96134e+00	5.478196e-05	9.752800e-01	

Index   time            V(1)            V(2)            time            
--------------------------------------------------------------------------------
983	9.762800e-01	-9.20232e+00	2.487475e-04	9.762800e-01	
984	9.772800e-01	-7.54251e+00	4.151078e-04	9.772800e-01	
985	9.782800e-01	-5.14440e+00	5.440880e-04	9.782800e-01	
986	9.792800e-01	-2.24271e+00	6.165581e-04	9.792800e-01	
987	9.802800e-01	8.785120e-01	6.319236e-04	9.802800e-01	
988	9.812800e-01	3.913737e+00	5.821862e-04	9.812800e-01	
989	9.822800e-01	6.565858e+00	4.787035e-04	9.822800e-01	
990	9.832800e-01	8.575267e+00	3.251215e-04	9.832800e-01	
991	9.842800e-01	9.745269e+00	1.429522e-04	9.842800e-01	
992	9.852800e-01	9.961336e+00	-5.64455e-05	9.852800e-01	
993	9.862800e-01	9.202318e+00	-2.47085e-04	9.862800e-01	
994	9.872800e-01	7.542514e+00	-4.16769e-04	9.872800e-01	
995	9.882800e-01	5.144395e+00	-5.42428e-04	9.882800e-01	
996	9.892800e-01	2.242708e+00	-6.18216e-04	9.892800e-01	
997	9.902800e-01	-8.78512e-01	-6.30267e-04	9.902800e-01	
998	9.912800e-01	-3.91374e+00	-5.83842e-04	9.912800e-01	
999	9.922800e-01	-6.56586e+00	-4.77049e-04	9.922800e-01	
1000	9.932800e-01	-8.57527e+00	-3.26774e-04	9.932800e-01	
1001	9.942800e-01	-9.74527e+00	-1.41301e-04	9.942800e-01	
1002	9.952800e-01	-9.96134e+00	5.479522e-05	9.952800e-01	
1003	9.962800e-01	-9.20232e+00	2.487343e-04	9.962800e-01	
1004	9.972800e-01	-7.54251e+00	4.151211e-04	9.972800e-01	
1005	9.982800e-01	-5.14440e+00	5.440748e-04	9.982800e-01	
1006	9.992800e-01	-2.24271e+00	6.165713e-04	9.992800e-01	
1007	1.000000e+00	1.964387e-14	6.293702e-04	1.000000e+00	

                                     *tran 
                                     Transient Analysis  Sat Aug 26 10:12:14  2017
--------------------------------------------------------------------------------
Index   time            v1#branch       
--------------------------------------------------------------------------------
0	0.000000e+00	0.000000e+00	
1	1.000000e-05	-6.15998e-08	
2	2.000000e-05	-6.28070e-08	
3	4.000000e-05	-6.28501e-08	
4	8.000000e-05	-6.27911e-08	
5	1.600000e-04	-6.27801e-08	
6	3.200000e-04	-6.25141e-08	
7	6.400000e-04	-6.16723e-08	
8	1.280000e-03	-5.81197e-08	
9	2.280000e-03	-4.79692e-08	
10	3.280000e-03	-3.24134e-08	
11	4.280000e-03	-1.43939e-08	
12	5.280000e-03	5.743156e-09	
13	6.280000e-03	2.461000e-08	
14	7.280000e-03	4.177532e-08	
15	8.280000e-03	5.414447e-08	
16	9.280000e-03	6.191993e-08	
17	1.028000e-02	6.292845e-08	
18	1.128000e-02	5.848231e-08	
19	1.228000e-02	4.760687e-08	
20	1.328000e-02	3.277542e-08	
21	1.428000e-02	1.403216e-08	
22	1.528000e-02	-5.38170e-09	
23	1.628000e-02	-2.49712e-08	
24	1.728000e-02	-4.14144e-08	
25	1.828000e-02	-5.45051e-08	
26	1.928000e-02	-6.15596e-08	
27	2.028000e-02	-6.32885e-08	
28	2.128000e-02	-5.81226e-08	
29	2.228000e-02	-4.79663e-08	
30	2.328000e-02	-3.24163e-08	
31	2.428000e-02	-1.43910e-08	
32	2.528000e-02	5.740276e-09	
33	2.628000e-02	2.461288e-08	
34	2.728000e-02	4.177244e-08	
35	2.828000e-02	5.414735e-08	
36	2.928000e-02	6.191706e-08	
37	3.028000e-02	6.293132e-08	
38	3.128000e-02	5.847945e-08	
39	3.228000e-02	4.760974e-08	
40	3.328000e-02	3.277256e-08	
41	3.428000e-02	1.403502e-08	
42	3.528000e-02	-5.38456e-09	
43	3.628000e-02	-2.49683e-08	
44	3.728000e-02	-4.14173e-08	
45	3.828000e-02	-5.45022e-08	
46	3.928000e-02	-6.15625e-08	
47	4.028000e-02	-6.32856e-08	
48	4.128000e-02	-5.81254e-08	
49	4.228000e-02	-4.79635e-08	
50	4.328000e-02	-3.24191e-08	
51	4.428000e-02	-1.43882e-08	
52	4.528000e-02	5.737442e-09	
53	4.628000e-02	2.461571e-08	
54	4.728000e-02	4.176961e-08	

Index   time            v1#branch       
--------------------------------------------------------------------------------
55	4.828000e-02	5.415017e-08	
56	4.928000e-02	6.191423e-08	
57	5.028000e-02	6.293414e-08	
58	5.128000e-02	5.847663e-08	
59	5.228000e-02	4.761255e-08	
60	5.328000e-02	3.276974e-08	
61	5.428000e-02	1.403784e-08	
62	5.528000e-02	-5.38737e-09	
63	5.628000e-02	-2.49655e-08	
64	5.728000e-02	-4.14201e-08	
65	5.828000e-02	-5.44994e-08	
66	5.928000e-02	-6.15653e-08	
67	6.028000e-02	-6.32828e-08	
68	6.128000e-02	-5.81282e-08	
69	6.228000e-02	-4.79607e-08	
70	6.328000e-02	-3.24219e-08	
71	6.428000e-02	-1.43854e-08	
72	6.528000e-02	5.734652e-09	
73	6.628000e-02	2.461850e-08	
74	6.728000e-02	4.176683e-08	
75	6.828000e-02	5.415296e-08	
76	6.928000e-02	6.191145e-08	
77	7.028000e-02	6.293692e-08	
78	7.128000e-02	5.847385e-08	
79	7.228000e-02	4.761533e-08	
80	7.328000e-02	3.276697e-08	
81	7.428000e-02	1.404061e-08	
82	7.528000e-02	-5.39014e-09	
83	7.628000e-02	-2.49627e-08	
84	7.728000e-02	-4.14229e-08	
85	7.828000e-02	-5.44966e-08	
86	7.928000e-02	-6.15680e-08	
87	8.028000e-02	-6.32801e-08	
88	8.128000e-02	-5.81310e-08	
89	8.228000e-02	-4.79579e-08	
90	8.328000e-02	-3.24247e-08	
91	8.428000e-02	-1.43826e-08	
92	8.528000e-02	5.731907e-09	
93	8.628000e-02	2.462124e-08	
94	8.728000e-02	4.176409e-08	
95	8.828000e-02	5.415569e-08	
96	8.928000e-02	6.190871e-08	
97	9.028000e-02	6.293966e-08	
98	9.128000e-02	5.847112e-08	
99	9.228000e-02	4.761806e-08	
100	9.328000e-02	3.276424e-08	
101	9.428000e-02	1.404333e-08	
102	9.528000e-02	-5.39286e-09	
103	9.628000e-02	-2.49600e-08	
104	9.728000e-02	-4.14256e-08	
105	9.828000e-02	-5.44939e-08	
106	9.928000e-02	-6.15708e-08	
107	1.002800e-01	-6.32773e-08	
108	1.012800e-01	-5.81337e-08	
109	1.022800e-01	-4.79552e-08	
110	1.032800e-01	-3.24274e-08	
111	1.042800e-01	-1.43799e-08	
112	1.052800e-01	5.729206e-09	

Index   time            v1#branch       
--------------------------------------------------------------------------------
113	1.062800e-01	2.462394e-08	
114	1.072800e-01	4.176139e-08	
115	1.082800e-01	5.415839e-08	
116	1.092800e-01	6.190602e-08	
117	1.102800e-01	6.294235e-08	
118	1.112800e-01	5.846843e-08	
119	1.122800e-01	4.762074e-08	
120	1.132800e-01	3.276156e-08	
121	1.142800e-01	1.404601e-08	
122	1.152800e-01	-5.39554e-09	
123	1.162800e-01	-2.49573e-08	
124	1.172800e-01	-4.14283e-08	
125	1.182800e-01	-5.44913e-08	
126	1.192800e-01	-6.15734e-08	
127	1.202800e-01	-6.32747e-08	
128	1.212800e-01	-5.81364e-08	
129	1.222800e-01	-4.79525e-08	
130	1.232800e-01	-3.24300e-08	
131	1.242800e-01	-1.43773e-08	
132	1.252800e-01	5.726547e-09	
133	1.262800e-01	2.462660e-08	
134	1.272800e-01	4.175874e-08	
135	1.282800e-01	5.416104e-08	
136	1.292800e-01	6.190337e-08	
137	1.302800e-01	6.294500e-08	
138	1.312800e-01	5.846578e-08	
139	1.322800e-01	4.762339e-08	
140	1.332800e-01	3.275892e-08	
141	1.342800e-01	1.404865e-08	
142	1.352800e-01	-5.39818e-09	
143	1.362800e-01	-2.49547e-08	
144	1.372800e-01	-4.14309e-08	
145	1.382800e-01	-5.44886e-08	
146	1.392800e-01	-6.15761e-08	
147	1.402800e-01	-6.32721e-08	
148	1.412800e-01	-5.81390e-08	
149	1.422800e-01	-4.79499e-08	
150	1.432800e-01	-3.24326e-08	
151	1.442800e-01	-1.43747e-08	
152	1.452800e-01	5.723931e-09	
153	1.462800e-01	2.462921e-08	
154	1.472800e-01	4.175612e-08	
155	1.482800e-01	5.416365e-08	
156	1.492800e-01	6.190076e-08	
157	1.502800e-01	6.294760e-08	
158	1.512800e-01	5.846318e-08	
159	1.522800e-01	4.762599e-08	
160	1.532800e-01	3.275632e-08	
161	1.542800e-01	1.405125e-08	
162	1.552800e-01	-5.40078e-09	
163	1.562800e-01	-2.49521e-08	
164	1.572800e-01	-4.14335e-08	
165	1.582800e-01	-5.44860e-08	
166	1.592800e-01	-6.15786e-08	
167	1.602800e-01	-6.32695e-08	
168	1.612800e-01	-5.81416e-08	
169	1.622800e-01	-4.79473e-08	
170	1.632800e-01	-3.24352e-08	

Index   time            v1#branch       
--------------------------------------------------------------------------------
171	1.642800e-01	-1.43721e-08	
172	1.652800e-01	5.721356e-09	
173	1.662800e-01	2.463178e-08	
174	1.672800e-01	4.175355e-08	
175	1.682800e-01	5.416622e-08	
176	1.692800e-01	6.189820e-08	
177	1.702800e-01	6.295017e-08	
178	1.712800e-01	5.846062e-08	
179	1.722800e-01	4.762855e-08	
180	1.732800e-01	3.275376e-08	
181	1.742800e-01	1.405381e-08	
182	1.752800e-01	-5.40333e-09	
183	1.762800e-01	-2.49496e-08	
184	1.772800e-01	-4.14360e-08	
185	1.782800e-01	-5.44835e-08	
186	1.792800e-01	-6.15812e-08	
187	1.802800e-01	-6.32669e-08	
188	1.812800e-01	-5.81441e-08	
189	1.822800e-01	-4.79448e-08	
190	1.832800e-01	-3.24378e-08	
191	1.842800e-01	-1.43696e-08	
192	1.852800e-01	5.718822e-09	
193	1.862800e-01	2.463432e-08	
194	1.872800e-01	4.175102e-08	
195	1.882800e-01	5.416875e-08	
196	1.892800e-01	6.189567e-08	
197	1.902800e-01	6.295269e-08	
198	1.912800e-01	5.845810e-08	
199	1.922800e-01	4.763107e-08	
200	1.932800e-01	3.275124e-08	
201	1.942800e-01	1.405632e-08	
202	1.952800e-01	-5.40584e-09	
203	1.962800e-01	-2.49470e-08	
204	1.972800e-01	-4.14385e-08	
205	1.982800e-01	-5.44810e-08	
206	1.992800e-01	-6.15837e-08	
207	2.002800e-01	-6.32644e-08	
208	2.012800e-01	-5.81466e-08	
209	2.022800e-01	-4.79423e-08	
210	2.032800e-01	-3.24403e-08	
211	2.042800e-01	-1.43671e-08	
212	2.052800e-01	5.716328e-09	
213	2.062800e-01	2.463681e-08	
214	2.072800e-01	4.174853e-08	
215	2.082800e-01	5.417124e-08	
216	2.092800e-01	6.189318e-08	
217	2.102800e-01	6.295517e-08	
218	2.112800e-01	5.845561e-08	
219	2.122800e-01	4.763355e-08	
220	2.132800e-01	3.274876e-08	
221	2.142800e-01	1.405880e-08	
222	2.152800e-01	-5.40832e-09	
223	2.162800e-01	-2.49446e-08	
224	2.172800e-01	-4.14410e-08	
225	2.182800e-01	-5.44785e-08	
226	2.192800e-01	-6.15862e-08	
227	2.202800e-01	-6.32620e-08	
228	2.212800e-01	-5.81491e-08	

Index   time            v1#branch       
--------------------------------------------------------------------------------
229	2.222800e-01	-4.79398e-08	
230	2.232800e-01	-3.24427e-08	
231	2.242800e-01	-1.43646e-08	
232	2.252800e-01	5.713873e-09	
233	2.262800e-01	2.463926e-08	
234	2.272800e-01	4.174608e-08	
235	2.282800e-01	5.417368e-08	
236	2.292800e-01	6.189074e-08	
237	2.302800e-01	6.295762e-08	
238	2.312800e-01	5.845317e-08	
239	2.322800e-01	4.763599e-08	
240	2.332800e-01	3.274632e-08	
241	2.342800e-01	1.406124e-08	
242	2.352800e-01	-5.41075e-09	
243	2.362800e-01	-2.49421e-08	
244	2.372800e-01	-4.14434e-08	
245	2.382800e-01	-5.44761e-08	
246	2.392800e-01	-6.15886e-08	
247	2.402800e-01	-6.32595e-08	
248	2.412800e-01	-5.81515e-08	
249	2.422800e-01	-4.79374e-08	
250	2.432800e-01	-3.24451e-08	
251	2.442800e-01	-1.43622e-08	
252	2.452800e-01	5.711458e-09	
253	2.462800e-01	2.464167e-08	
254	2.472800e-01	4.174367e-08	
255	2.482800e-01	5.417609e-08	
256	2.492800e-01	6.188833e-08	
257	2.502800e-01	6.296002e-08	
258	2.512800e-01	5.845077e-08	
259	2.522800e-01	4.763839e-08	
260	2.532800e-01	3.274392e-08	
261	2.542800e-01	1.406363e-08	
262	2.552800e-01	-5.41315e-09	
263	2.562800e-01	-2.49397e-08	
264	2.572800e-01	-4.14458e-08	
265	2.582800e-01	-5.44737e-08	
266	2.592800e-01	-6.15910e-08	
267	2.602800e-01	-6.32571e-08	
268	2.612800e-01	-5.81539e-08	
269	2.622800e-01	-4.79350e-08	
270	2.632800e-01	-3.24475e-08	
271	2.642800e-01	-1.43598e-08	
272	2.652800e-01	5.709081e-09	
273	2.662800e-01	2.464405e-08	
274	2.672800e-01	4.174130e-08	
275	2.682800e-01	5.417847e-08	
276	2.692800e-01	6.188596e-08	
277	2.702800e-01	6.296239e-08	
278	2.712800e-01	5.844840e-08	
279	2.722800e-01	4.764076e-08	
280	2.732800e-01	3.274156e-08	
281	2.742800e-01	1.406599e-08	
282	2.752800e-01	-5.41551e-09	
283	2.762800e-01	-2.49374e-08	
284	2.772800e-01	-4.14482e-08	
285	2.782800e-01	-5.44713e-08	
286	2.792800e-01	-6.15933e-08	

Index   time            v1#branch       
--------------------------------------------------------------------------------
287	2.802800e-01	-6.32548e-08	
288	2.812800e-01	-5.81562e-08	
289	2.822800e-01	-4.79327e-08	
290	2.832800e-01	-3.24499e-08	
291	2.842800e-01	-1.43575e-08	
292	2.852800e-01	5.706742e-09	
293	2.862800e-01	2.464639e-08	
294	2.872800e-01	4.173896e-08	
295	2.882800e-01	5.418080e-08	
296	2.892800e-01	6.188363e-08	
297	2.902800e-01	6.296472e-08	
298	2.912800e-01	5.844607e-08	
299	2.922800e-01	4.764308e-08	
300	2.932800e-01	3.273924e-08	
301	2.942800e-01	1.406832e-08	
302	2.952800e-01	-5.41783e-09	
303	2.962800e-01	-2.49351e-08	
304	2.972800e-01	-4.14505e-08	
305	2.982800e-01	-5.44690e-08	
306	2.992800e-01	-6.15956e-08	
307	3.002800e-01	-6.32525e-08	
308	3.012800e-01	-5.81585e-08	
309	3.022800e-01	-4.79304e-08	
310	3.032800e-01	-3.24522e-08	
311	3.042800e-01	-1.43552e-08	
312	3.052800e-01	5.704440e-09	
313	3.062800e-01	2.464869e-08	
314	3.072800e-01	4.173666e-08	
315	3.082800e-01	5.418310e-08	
316	3.092800e-01	6.188133e-08	
317	3.102800e-01	6.296701e-08	
318	3.112800e-01	5.844378e-08	
319	3.122800e-01	4.764537e-08	
320	3.132800e-01	3.273695e-08	
321	3.142800e-01	1.407060e-08	
322	3.152800e-01	-5.42011e-09	
323	3.162800e-01	-2.49328e-08	
324	3.172800e-01	-4.14528e-08	
325	3.182800e-01	-5.44667e-08	
326	3.192800e-01	-6.15979e-08	
327	3.202800e-01	-6.32502e-08	
328	3.212800e-01	-5.81608e-08	
329	3.222800e-01	-4.79281e-08	
330	3.232800e-01	-3.24544e-08	
331	3.242800e-01	-1.43529e-08	
332	3.252800e-01	5.702174e-09	
333	3.262800e-01	2.465095e-08	
334	3.272800e-01	4.173440e-08	
335	3.282800e-01	5.418536e-08	
336	3.292800e-01	6.187908e-08	
337	3.302800e-01	6.296927e-08	
338	3.312800e-01	5.844153e-08	
339	3.322800e-01	4.764763e-08	
340	3.332800e-01	3.273470e-08	
341	3.342800e-01	1.407285e-08	
342	3.352800e-01	-5.42236e-09	
343	3.362800e-01	-2.49305e-08	
344	3.372800e-01	-4.14550e-08	

Index   time            v1#branch       
--------------------------------------------------------------------------------
345	3.382800e-01	-5.44645e-08	
346	3.392800e-01	-6.16002e-08	
347	3.402800e-01	-6.32480e-08	
348	3.412800e-01	-5.81631e-08	
349	3.422800e-01	-4.79259e-08	
350	3.432800e-01	-3.24567e-08	
351	3.442800e-01	-1.43507e-08	
352	3.452800e-01	5.699945e-09	
353	3.462800e-01	2.465318e-08	
354	3.472800e-01	4.173218e-08	
355	3.482800e-01	5.418758e-08	
356	3.492800e-01	6.187685e-08	
357	3.502800e-01	6.297149e-08	
358	3.512800e-01	5.843931e-08	
359	3.522800e-01	4.764984e-08	
360	3.532800e-01	3.273248e-08	
361	3.542800e-01	1.407506e-08	
362	3.552800e-01	-5.42457e-09	
363	3.562800e-01	-2.49283e-08	
364	3.572800e-01	-4.14572e-08	
365	3.582800e-01	-5.44623e-08	
366	3.592800e-01	-6.16024e-08	
367	3.602800e-01	-6.32458e-08	
368	3.612800e-01	-5.81653e-08	
369	3.622800e-01	-4.79237e-08	
370	3.632800e-01	-3.24589e-08	
371	3.642800e-01	-1.43485e-08	
372	3.652800e-01	5.697751e-09	
373	3.662800e-01	2.465537e-08	
374	3.672800e-01	4.172999e-08	
375	3.682800e-01	5.418977e-08	
376	3.692800e-01	6.187467e-08	
377	3.702800e-01	6.297368e-08	
378	3.712800e-01	5.843713e-08	
379	3.722800e-01	4.765202e-08	
380	3.732800e-01	3.273030e-08	
381	3.742800e-01	1.407724e-08	
382	3.752800e-01	-5.42675e-09	
383	3.762800e-01	-2.49262e-08	
384	3.772800e-01	-4.14594e-08	
385	3.782800e-01	-5.44601e-08	
386	3.792800e-01	-6.16045e-08	
387	3.802800e-01	-6.32436e-08	
388	3.812800e-01	-5.81674e-08	
389	3.822800e-01	-4.79215e-08	
390	3.832800e-01	-3.24610e-08	
391	3.842800e-01	-1.43463e-08	
392	3.852800e-01	5.695591e-09	
393	3.862800e-01	2.465753e-08	
394	3.872800e-01	4.172783e-08	
395	3.882800e-01	5.419192e-08	
396	3.892800e-01	6.187251e-08	
397	3.902800e-01	6.297583e-08	
398	3.912800e-01	5.843498e-08	
399	3.922800e-01	4.765417e-08	
400	3.932800e-01	3.272816e-08	
401	3.942800e-01	1.407939e-08	
402	3.952800e-01	-5.42889e-09	

Index   time            v1#branch       
--------------------------------------------------------------------------------
403	3.962800e-01	-2.49240e-08	
404	3.972800e-01	-4.14616e-08	
405	3.982800e-01	-5.44580e-08	
406	3.992800e-01	-6.16067e-08	
407	4.002800e-01	-6.32415e-08	
408	4.012800e-01	-5.81696e-08	
409	4.022800e-01	-4.79194e-08	
410	4.032800e-01	-3.24632e-08	
411	4.042800e-01	-1.43442e-08	
412	4.052800e-01	5.693466e-09	
413	4.062800e-01	2.465965e-08	
414	4.072800e-01	4.172571e-08	
415	4.082800e-01	5.419404e-08	
416	4.092800e-01	6.187040e-08	
417	4.102800e-01	6.297794e-08	
418	4.112800e-01	5.843286e-08	
419	4.122800e-01	4.765628e-08	
420	4.132800e-01	3.272605e-08	
421	4.142800e-01	1.408150e-08	
422	4.152800e-01	-5.43100e-09	
423	4.162800e-01	-2.49219e-08	
424	4.172800e-01	-4.14637e-08	
425	4.182800e-01	-5.44559e-08	
426	4.192800e-01	-6.16088e-08	
427	4.202800e-01	-6.32394e-08	
428	4.212800e-01	-5.81716e-08	
429	4.222800e-01	-4.79173e-08	
430	4.232800e-01	-3.24653e-08	
431	4.242800e-01	-1.43421e-08	
432	4.252800e-01	5.691375e-09	
433	4.262800e-01	2.466174e-08	
434	4.272800e-01	4.172362e-08	
435	4.282800e-01	5.419613e-08	
436	4.292800e-01	6.186831e-08	
437	4.302800e-01	6.298003e-08	
438	4.312800e-01	5.843078e-08	
439	4.322800e-01	4.765836e-08	
440	4.332800e-01	3.272397e-08	
441	4.342800e-01	1.408357e-08	
442	4.352800e-01	-5.43307e-09	
443	4.362800e-01	-2.49198e-08	
444	4.372800e-01	-4.14657e-08	
445	4.382800e-01	-5.44538e-08	
446	4.392800e-01	-6.16108e-08	
447	4.402800e-01	-6.32373e-08	
448	4.412800e-01	-5.81737e-08	
449	4.422800e-01	-4.79152e-08	
450	4.432800e-01	-3.24673e-08	
451	4.442800e-01	-1.43400e-08	
452	4.452800e-01	5.689317e-09	
453	4.462800e-01	2.466380e-08	
454	4.472800e-01	4.172157e-08	
455	4.482800e-01	5.419818e-08	
456	4.492800e-01	6.186626e-08	
457	4.502800e-01	6.298208e-08	
458	4.512800e-01	5.842873e-08	
459	4.522800e-01	4.766041e-08	
460	4.532800e-01	3.272192e-08	

Index   time            v1#branch       
--------------------------------------------------------------------------------
461	4.542800e-01	1.408562e-08	
462	4.552800e-01	-5.43511e-09	
463	4.562800e-01	-2.49178e-08	
464	4.572800e-01	-4.14678e-08	
465	4.582800e-01	-5.44518e-08	
466	4.592800e-01	-6.16129e-08	
467	4.602800e-01	-6.32353e-08	
468	4.612800e-01	-5.81757e-08	
469	4.622800e-01	-4.79132e-08	
470	4.632800e-01	-3.24693e-08	
471	4.642800e-01	-1.43380e-08	
472	4.652800e-01	5.687291e-09	
473	4.662800e-01	2.466582e-08	
474	4.672800e-01	4.171954e-08	
475	4.682800e-01	5.420020e-08	
476	4.692800e-01	6.186424e-08	
477	4.702800e-01	6.298410e-08	
478	4.712800e-01	5.842672e-08	
479	4.722800e-01	4.766243e-08	
480	4.732800e-01	3.271991e-08	
481	4.742800e-01	1.408763e-08	
482	4.752800e-01	-5.43712e-09	
483	4.762800e-01	-2.49158e-08	
484	4.772800e-01	-4.14698e-08	
485	4.782800e-01	-5.44498e-08	
486	4.792800e-01	-6.16149e-08	
487	4.802800e-01	-6.32333e-08	
488	4.812800e-01	-5.81777e-08	
489	4.822800e-01	-4.79112e-08	
490	4.832800e-01	-3.24713e-08	
491	4.842800e-01	-1.43360e-08	
492	4.852800e-01	5.685298e-09	
493	4.862800e-01	2.466781e-08	
494	4.872800e-01	4.171755e-08	
495	4.882800e-01	5.420219e-08	
496	4.892800e-01	6.186225e-08	
497	4.902800e-01	6.298608e-08	
498	4.912800e-01	5.842473e-08	
499	4.922800e-01	4.766441e-08	
500	4.932800e-01	3.271793e-08	
501	4.942800e-01	1.408961e-08	
502	4.952800e-01	-5.43910e-09	
503	4.962800e-01	-2.49138e-08	
504	4.972800e-01	-4.14717e-08	
505	4.982800e-01	-5.44478e-08	
506	4.992800e-01	-6.16168e-08	
507	5.002800e-01	-6.32313e-08	
508	5.012800e-01	-5.81797e-08	
509	5.022800e-01	-4.79092e-08	
510	5.032800e-01	-3.24733e-08	
511	5.042800e-01	-1.43340e-08	
512	5.052800e-01	5.683336e-09	
513	5.062800e-01	2.466977e-08	
514	5.072800e-01	4.171559e-08	
515	5.082800e-01	5.420415e-08	
516	5.092800e-01	6.186030e-08	
517	5.102800e-01	6.298803e-08	
518	5.112800e-01	5.842278e-08	

Index   time            v1#branch       
--------------------------------------------------------------------------------
519	5.122800e-01	4.766636e-08	
520	5.132800e-01	3.271598e-08	
521	5.142800e-01	1.409155e-08	
522	5.152800e-01	-5.44105e-09	
523	5.162800e-01	-2.49119e-08	
524	5.172800e-01	-4.14737e-08	
525	5.182800e-01	-5.44459e-08	
526	5.192800e-01	-6.16188e-08	
527	5.202800e-01	-6.32294e-08	
528	5.212800e-01	-5.81817e-08	
529	5.222800e-01	-4.79073e-08	
530	5.232800e-01	-3.24752e-08	
531	5.242800e-01	-1.43321e-08	
532	5.252800e-01	5.681405e-09	
533	5.262800e-01	2.467170e-08	
534	5.272800e-01	4.171367e-08	
535	5.282800e-01	5.420608e-08	
536	5.292800e-01	6.185837e-08	
537	5.302800e-01	6.298996e-08	
538	5.312800e-01	5.842086e-08	
539	5.322800e-01	4.766828e-08	
540	5.332800e-01	3.271406e-08	
541	5.342800e-01	1.409347e-08	
542	5.352800e-01	-5.44296e-09	
543	5.362800e-01	-2.49100e-08	
544	5.372800e-01	-4.14756e-08	
545	5.382800e-01	-5.44439e-08	
546	5.392800e-01	-6.16207e-08	
547	5.402800e-01	-6.32274e-08	
548	5.412800e-01	-5.81836e-08	
549	5.422800e-01	-4.79054e-08	
550	5.432800e-01	-3.24771e-08	
551	5.442800e-01	-1.43302e-08	
552	5.452800e-01	5.679505e-09	
553	5.462800e-01	2.467360e-08	
554	5.472800e-01	4.171177e-08	
555	5.482800e-01	5.420797e-08	
556	5.492800e-01	6.185648e-08	
557	5.502800e-01	6.299185e-08	
558	5.512800e-01	5.841897e-08	
559	5.522800e-01	4.767017e-08	
560	5.532800e-01	3.271218e-08	
561	5.542800e-01	1.409536e-08	
562	5.552800e-01	-5.44485e-09	
563	5.562800e-01	-2.49081e-08	
564	5.572800e-01	-4.14775e-08	
565	5.582800e-01	-5.44421e-08	
566	5.592800e-01	-6.16226e-08	
567	5.602800e-01	-6.32256e-08	
568	5.612800e-01	-5.81854e-08	
569	5.622800e-01	-4.79035e-08	
570	5.632800e-01	-3.24790e-08	
571	5.642800e-01	-1.43283e-08	
572	5.652800e-01	5.677636e-09	
573	5.662800e-01	2.467547e-08	
574	5.672800e-01	4.170990e-08	
575	5.682800e-01	5.420984e-08	
576	5.692800e-01	6.185462e-08	

Index   time            v1#branch       
--------------------------------------------------------------------------------
577	5.702800e-01	6.299371e-08	
578	5.712800e-01	5.841711e-08	
579	5.722800e-01	4.767203e-08	
580	5.732800e-01	3.271032e-08	
581	5.742800e-01	1.409721e-08	
582	5.752800e-01	-5.44670e-09	
583	5.762800e-01	-2.49062e-08	
584	5.772800e-01	-4.14793e-08	
585	5.782800e-01	-5.44402e-08	
586	5.792800e-01	-6.16244e-08	
587	5.802800e-01	-6.32237e-08	
588	5.812800e-01	-5.81873e-08	
589	5.822800e-01	-4.79017e-08	
590	5.832800e-01	-3.24809e-08	
591	5.842800e-01	-1.43265e-08	
592	5.852800e-01	5.675796e-09	
593	5.862800e-01	2.467731e-08	
594	5.872800e-01	4.170807e-08	
595	5.882800e-01	5.421167e-08	
596	5.892800e-01	6.185278e-08	
597	5.902800e-01	6.299554e-08	
598	5.912800e-01	5.841528e-08	
599	5.922800e-01	4.767386e-08	
600	5.932800e-01	3.270849e-08	
601	5.942800e-01	1.409904e-08	
602	5.952800e-01	-5.44853e-09	
603	5.962800e-01	-2.49044e-08	
604	5.972800e-01	-4.14812e-08	
605	5.982800e-01	-5.44384e-08	
606	5.992800e-01	-6.16262e-08	
607	6.002800e-01	-6.32219e-08	
608	6.012800e-01	-5.81891e-08	
609	6.022800e-01	-4.78999e-08	
610	6.032800e-01	-3.24827e-08	
611	6.042800e-01	-1.43247e-08	
612	6.052800e-01	5.673985e-09	
613	6.062800e-01	2.467912e-08	
614	6.072800e-01	4.170626e-08	
615	6.082800e-01	5.421348e-08	
616	6.092800e-01	6.185098e-08	
617	6.102800e-01	6.299735e-08	
618	6.112800e-01	5.841347e-08	
619	6.122800e-01	4.767566e-08	
620	6.132800e-01	3.270669e-08	
621	6.142800e-01	1.410084e-08	
622	6.152800e-01	-5.45032e-09	
623	6.162800e-01	-2.49026e-08	
624	6.172800e-01	-4.14830e-08	
625	6.182800e-01	-5.44366e-08	
626	6.192800e-01	-6.16280e-08	
627	6.202800e-01	-6.32201e-08	
628	6.212800e-01	-5.81909e-08	
629	6.222800e-01	-4.78981e-08	
630	6.232800e-01	-3.24845e-08	
631	6.242800e-01	-1.43229e-08	
632	6.252800e-01	5.672202e-09	
633	6.262800e-01	2.468090e-08	
634	6.272800e-01	4.170448e-08	

Index   time            v1#branch       
--------------------------------------------------------------------------------
635	6.282800e-01	5.421526e-08	
636	6.292800e-01	6.184920e-08	
637	6.302800e-01	6.299912e-08	
638	6.312800e-01	5.841170e-08	
639	6.322800e-01	4.767743e-08	
640	6.332800e-01	3.270492e-08	
641	6.342800e-01	1.410261e-08	
642	6.352800e-01	-5.45209e-09	
643	6.362800e-01	-2.49008e-08	
644	6.372800e-01	-4.14847e-08	
645	6.382800e-01	-5.44348e-08	
646	6.392800e-01	-6.16298e-08	
647	6.402800e-01	-6.32184e-08	
648	6.412800e-01	-5.81926e-08	
649	6.422800e-01	-4.78963e-08	
650	6.432800e-01	-3.24862e-08	
651	6.442800e-01	-1.43211e-08	
652	6.452800e-01	5.670449e-09	
653	6.462800e-01	2.468265e-08	
654	6.472800e-01	4.170273e-08	
655	6.482800e-01	5.421701e-08	
656	6.492800e-01	6.184745e-08	
657	6.502800e-01	6.300087e-08	
658	6.512800e-01	5.840995e-08	
659	6.522800e-01	4.767917e-08	
660	6.532800e-01	3.270318e-08	
661	6.542800e-01	1.410435e-08	
662	6.552800e-01	-5.45383e-09	
663	6.562800e-01	-2.48991e-08	
664	6.572800e-01	-4.14865e-08	
665	6.582800e-01	-5.44331e-08	
666	6.592800e-01	-6.16315e-08	
667	6.602800e-01	-6.32166e-08	
668	6.612800e-01	-5.81944e-08	
669	6.622800e-01	-4.78946e-08	
670	6.632800e-01	-3.24879e-08	
671	6.642800e-01	-1.43194e-08	
672	6.652800e-01	5.668723e-09	
673	6.662800e-01	2.468438e-08	
674	6.672800e-01	4.170100e-08	
675	6.682800e-01	5.421873e-08	
676	6.692800e-01	6.184573e-08	
677	6.702800e-01	6.300259e-08	
678	6.712800e-01	5.840824e-08	
679	6.722800e-01	4.768089e-08	
680	6.732800e-01	3.270146e-08	
681	6.742800e-01	1.410606e-08	
682	6.752800e-01	-5.45554e-09	
683	6.762800e-01	-2.48974e-08	
684	6.772800e-01	-4.14882e-08	
685	6.782800e-01	-5.44314e-08	
686	6.792800e-01	-6.16332e-08	
687	6.802800e-01	-6.32149e-08	
688	6.812800e-01	-5.81961e-08	
689	6.822800e-01	-4.78929e-08	
690	6.832800e-01	-3.24896e-08	
691	6.842800e-01	-1.43177e-08	
692	6.852800e-01	5.667024e-09	

Index   time            v1#branch       
--------------------------------------------------------------------------------
693	6.862800e-01	2.468607e-08	
694	6.872800e-01	4.169931e-08	
695	6.882800e-01	5.422042e-08	
696	6.892800e-01	6.184404e-08	
697	6.902800e-01	6.300428e-08	
698	6.912800e-01	5.840655e-08	
699	6.922800e-01	4.768258e-08	
700	6.932800e-01	3.269977e-08	
701	6.942800e-01	1.410775e-08	
702	6.952800e-01	-5.45723e-09	
703	6.962800e-01	-2.48957e-08	
704	6.972800e-01	-4.14898e-08	
705	6.982800e-01	-5.44297e-08	
706	6.992800e-01	-6.16349e-08	
707	7.002800e-01	-6.32132e-08	
708	7.012800e-01	-5.81978e-08	
709	7.022800e-01	-4.78912e-08	
710	7.032800e-01	-3.24913e-08	
711	7.042800e-01	-1.43160e-08	
712	7.052800e-01	5.665352e-09	
713	7.062800e-01	2.468774e-08	
714	7.072800e-01	4.169764e-08	
715	7.082800e-01	5.422209e-08	
716	7.092800e-01	6.184237e-08	
717	7.102800e-01	6.300595e-08	
718	7.112800e-01	5.840488e-08	
719	7.122800e-01	4.768424e-08	
720	7.132800e-01	3.269811e-08	
721	7.142800e-01	1.410941e-08	
722	7.152800e-01	-5.45889e-09	
723	7.162800e-01	-2.48940e-08	
724	7.172800e-01	-4.14915e-08	
725	7.182800e-01	-5.44281e-08	
726	7.192800e-01	-6.16366e-08	
727	7.202800e-01	-6.32116e-08	
728	7.212800e-01	-5.81994e-08	
729	7.222800e-01	-4.78896e-08	
730	7.232800e-01	-3.24930e-08	
731	7.242800e-01	-1.43144e-08	
732	7.252800e-01	5.663707e-09	
733	7.262800e-01	2.468939e-08	
734	7.272800e-01	4.169600e-08	
735	7.282800e-01	5.422373e-08	
736	7.292800e-01	6.184073e-08	
737	7.302800e-01	6.300758e-08	
738	7.312800e-01	5.840324e-08	
739	7.322800e-01	4.768588e-08	
740	7.332800e-01	3.269648e-08	
741	7.342800e-01	1.411104e-08	
742	7.352800e-01	-5.46052e-09	
743	7.362800e-01	-2.48924e-08	
744	7.372800e-01	-4.14931e-08	
745	7.382800e-01	-5.44264e-08	
746	7.392800e-01	-6.16382e-08	
747	7.402800e-01	-6.32100e-08	
748	7.412800e-01	-5.82010e-08	
749	7.422800e-01	-4.78879e-08	
750	7.432800e-01	-3.24946e-08	

Index   time            v1#branch       
--------------------------------------------------------------------------------
751	7.442800e-01	-1.43128e-08	
752	7.452800e-01	5.662088e-09	
753	7.462800e-01	2.469100e-08	
754	7.472800e-01	4.169438e-08	
755	7.482800e-01	5.422535e-08	
756	7.492800e-01	6.183912e-08	
757	7.502800e-01	6.300920e-08	
758	7.512800e-01	5.840163e-08	
759	7.522800e-01	4.768749e-08	
760	7.532800e-01	3.269487e-08	
761	7.542800e-01	1.411265e-08	
762	7.552800e-01	-5.46213e-09	
763	7.562800e-01	-2.48908e-08	
764	7.572800e-01	-4.14947e-08	
765	7.582800e-01	-5.44248e-08	
766	7.592800e-01	-6.16398e-08	
767	7.602800e-01	-6.32084e-08	
768	7.612800e-01	-5.82026e-08	
769	7.622800e-01	-4.78863e-08	
770	7.632800e-01	-3.24962e-08	
771	7.642800e-01	-1.43112e-08	
772	7.652800e-01	5.660495e-09	
773	7.662800e-01	2.469260e-08	
774	7.672800e-01	4.169279e-08	
775	7.682800e-01	5.422694e-08	
776	7.692800e-01	6.183753e-08	
777	7.702800e-01	6.301078e-08	
778	7.712800e-01	5.840005e-08	
779	7.722800e-01	4.768907e-08	
780	7.732800e-01	3.269329e-08	
781	7.742800e-01	1.411423e-08	
782	7.752800e-01	-5.46371e-09	
783	7.762800e-01	-2.48892e-08	
784	7.772800e-01	-4.14963e-08	
785	7.782800e-01	-5.44233e-08	
786	7.792800e-01	-6.16414e-08	
787	7.802800e-01	-6.32068e-08	
788	7.812800e-01	-5.82042e-08	
789	7.822800e-01	-4.78848e-08	
790	7.832800e-01	-3.24978e-08	
791	7.842800e-01	-1.43096e-08	
792	7.852800e-01	5.658927e-09	
793	7.862800e-01	2.469416e-08	
794	7.872800e-01	4.169122e-08	
795	7.882800e-01	5.422850e-08	
796	7.892800e-01	6.183597e-08	
797	7.902800e-01	6.301235e-08	
798	7.912800e-01	5.839849e-08	
799	7.922800e-01	4.769063e-08	
800	7.932800e-01	3.269173e-08	
801	7.942800e-01	1.411579e-08	
802	7.952800e-01	-5.46526e-09	
803	7.962800e-01	-2.48877e-08	
804	7.972800e-01	-4.14979e-08	
805	7.982800e-01	-5.44217e-08	
806	7.992800e-01	-6.16429e-08	
807	8.002800e-01	-6.32052e-08	
808	8.012800e-01	-5.82057e-08	

Index   time            v1#branch       
--------------------------------------------------------------------------------
809	8.022800e-01	-4.78832e-08	
810	8.032800e-01	-3.24993e-08	
811	8.042800e-01	-1.43081e-08	
812	8.052800e-01	5.657384e-09	
813	8.062800e-01	2.469571e-08	
814	8.072800e-01	4.168968e-08	
815	8.082800e-01	5.423004e-08	
816	8.092800e-01	6.183443e-08	
817	8.102800e-01	6.301388e-08	
818	8.112800e-01	5.839695e-08	
819	8.122800e-01	4.769217e-08	
820	8.132800e-01	3.269020e-08	
821	8.142800e-01	1.411732e-08	
822	8.152800e-01	-5.46679e-09	
823	8.162800e-01	-2.48861e-08	
824	8.172800e-01	-4.14994e-08	
825	8.182800e-01	-5.44202e-08	
826	8.192800e-01	-6.16444e-08	
827	8.202800e-01	-6.32037e-08	
828	8.212800e-01	-5.82073e-08	
829	8.222800e-01	-4.78817e-08	
830	8.232800e-01	-3.25008e-08	
831	8.242800e-01	-1.43065e-08	
832	8.252800e-01	5.655865e-09	
833	8.262800e-01	2.469722e-08	
834	8.272800e-01	4.168817e-08	
835	8.282800e-01	5.423155e-08	
836	8.292800e-01	6.183291e-08	
837	8.302800e-01	6.301540e-08	
838	8.312800e-01	5.839544e-08	
839	8.322800e-01	4.769368e-08	
840	8.332800e-01	3.268869e-08	
841	8.342800e-01	1.411883e-08	
842	8.352800e-01	-5.46830e-09	
843	8.362800e-01	-2.48846e-08	
844	8.372800e-01	-4.15009e-08	
845	8.382800e-01	-5.44187e-08	
846	8.392800e-01	-6.16459e-08	
847	8.402800e-01	-6.32022e-08	
848	8.412800e-01	-5.82088e-08	
849	8.422800e-01	-4.78802e-08	
850	8.432800e-01	-3.25023e-08	
851	8.442800e-01	-1.43050e-08	
852	8.452800e-01	5.654370e-09	
853	8.462800e-01	2.469872e-08	
854	8.472800e-01	4.168667e-08	
855	8.482800e-01	5.423305e-08	
856	8.492800e-01	6.183142e-08	
857	8.502800e-01	6.301688e-08	
858	8.512800e-01	5.839395e-08	
859	8.522800e-01	4.769516e-08	
860	8.532800e-01	3.268720e-08	
861	8.542800e-01	1.412031e-08	
862	8.552800e-01	-5.46978e-09	
863	8.562800e-01	-2.48832e-08	
864	8.572800e-01	-4.15024e-08	
865	8.582800e-01	-5.44172e-08	
866	8.592800e-01	-6.16474e-08	

Index   time            v1#branch       
--------------------------------------------------------------------------------
867	8.602800e-01	-6.32007e-08	
868	8.612800e-01	-5.82102e-08	
869	8.622800e-01	-4.78787e-08	
870	8.632800e-01	-3.25038e-08	
871	8.642800e-01	-1.43036e-08	
872	8.652800e-01	5.652900e-09	
873	8.662800e-01	2.470019e-08	
874	8.672800e-01	4.168521e-08	
875	8.682800e-01	5.423451e-08	
876	8.692800e-01	6.182996e-08	
877	8.702800e-01	6.301835e-08	
878	8.712800e-01	5.839249e-08	
879	8.722800e-01	4.769662e-08	
880	8.732800e-01	3.268574e-08	
881	8.742800e-01	1.412177e-08	
882	8.752800e-01	-5.47124e-09	
883	8.762800e-01	-2.48817e-08	
884	8.772800e-01	-4.15038e-08	
885	8.782800e-01	-5.44157e-08	
886	8.792800e-01	-6.16489e-08	
887	8.802800e-01	-6.31993e-08	
888	8.812800e-01	-5.82117e-08	
889	8.822800e-01	-4.78773e-08	
890	8.832800e-01	-3.25052e-08	
891	8.842800e-01	-1.43021e-08	
892	8.852800e-01	5.651452e-09	
893	8.862800e-01	2.470163e-08	
894	8.872800e-01	4.168376e-08	
895	8.882800e-01	5.423596e-08	
896	8.892800e-01	6.182852e-08	
897	8.902800e-01	6.301979e-08	
898	8.912800e-01	5.839105e-08	
899	8.922800e-01	4.769806e-08	
900	8.932800e-01	3.268430e-08	
901	8.942800e-01	1.412321e-08	
902	8.952800e-01	-5.47268e-09	
903	8.962800e-01	-2.48803e-08	
904	8.972800e-01	-4.15053e-08	
905	8.982800e-01	-5.44143e-08	
906	8.992800e-01	-6.16503e-08	
907	9.002800e-01	-6.31979e-08	
908	9.012800e-01	-5.82131e-08	
909	9.022800e-01	-4.78758e-08	
910	9.032800e-01	-3.25067e-08	
911	9.042800e-01	-1.43007e-08	
912	9.052800e-01	5.650028e-09	
913	9.062800e-01	2.470306e-08	
914	9.072800e-01	4.168234e-08	
915	9.082800e-01	5.423738e-08	
916	9.092800e-01	6.182710e-08	
917	9.102800e-01	6.302121e-08	
918	9.112800e-01	5.838963e-08	
919	9.122800e-01	4.769948e-08	
920	9.132800e-01	3.268289e-08	
921	9.142800e-01	1.412462e-08	
922	9.152800e-01	-5.47409e-09	
923	9.162800e-01	-2.48789e-08	
924	9.172800e-01	-4.15067e-08	

Index   time            v1#branch       
--------------------------------------------------------------------------------
925	9.182800e-01	-5.44129e-08	
926	9.192800e-01	-6.16517e-08	
927	9.202800e-01	-6.31964e-08	
928	9.212800e-01	-5.82145e-08	
929	9.222800e-01	-4.78744e-08	
930	9.232800e-01	-3.25081e-08	
931	9.242800e-01	-1.42993e-08	
932	9.252800e-01	5.648626e-09	
933	9.262800e-01	2.470446e-08	
934	9.272800e-01	4.168094e-08	
935	9.282800e-01	5.423878e-08	
936	9.292800e-01	6.182570e-08	
937	9.302800e-01	6.302261e-08	
938	9.312800e-01	5.838824e-08	
939	9.322800e-01	4.770087e-08	
940	9.332800e-01	3.268149e-08	
941	9.342800e-01	1.412602e-08	
942	9.352800e-01	-5.47548e-09	
943	9.362800e-01	-2.48775e-08	
944	9.372800e-01	-4.15081e-08	
945	9.382800e-01	-5.44115e-08	
946	9.392800e-01	-6.16531e-08	
947	9.402800e-01	-6.31951e-08	
948	9.412800e-01	-5.82159e-08	
949	9.422800e-01	-4.78731e-08	
950	9.432800e-01	-3.25095e-08	
951	9.442800e-01	-1.42979e-08	
952	9.452800e-01	5.647246e-09	
953	9.462800e-01	2.470584e-08	
954	9.472800e-01	4.167956e-08	
955	9.482800e-01	5.424015e-08	
956	9.492800e-01	6.182432e-08	
957	9.502800e-01	6.302398e-08	
958	9.512800e-01	5.838686e-08	
959	9.522800e-01	4.770225e-08	
960	9.532800e-01	3.268012e-08	
961	9.542800e-01	1.412739e-08	
962	9.552800e-01	-5.47685e-09	
963	9.562800e-01	-2.48761e-08	
964	9.572800e-01	-4.15094e-08	
965	9.582800e-01	-5.44101e-08	
966	9.592800e-01	-6.16545e-08	
967	9.602800e-01	-6.31937e-08	
968	9.612800e-01	-5.82173e-08	
969	9.622800e-01	-4.78717e-08	
970	9.632800e-01	-3.25108e-08	
971	9.642800e-01	-1.42966e-08	
972	9.652800e-01	5.645888e-09	
973	9.662800e-01	2.470719e-08	
974	9.672800e-01	4.167821e-08	
975	9.682800e-01	5.424151e-08	
976	9.692800e-01	6.182297e-08	
977	9.702800e-01	6.302533e-08	
978	9.712800e-01	5.838551e-08	
979	9.722800e-01	4.770360e-08	
980	9.732800e-01	3.267877e-08	
981	9.742800e-01	1.412873e-08	
982	9.752800e-01	-5.47820e-09	

Index   time            v1#branch       
--------------------------------------------------------------------------------
983	9.762800e-01	-2.48748e-08	
984	9.772800e-01	-4.15108e-08	
985	9.782800e-01	-5.44088e-08	
986	9.792800e-01	-6.16558e-08	
987	9.802800e-01	-6.31924e-08	
988	9.812800e-01	-5.82186e-08	
989	9.822800e-01	-4.78704e-08	
990	9.832800e-01	-3.25122e-08	
991	9.842800e-01	-1.42952e-08	
992	9.852800e-01	5.644552e-09	
993	9.862800e-01	2.470853e-08	
994	9.872800e-01	4.167687e-08	
995	9.882800e-01	5.424284e-08	
996	9.892800e-01	6.182164e-08	
997	9.902800e-01	6.302666e-08	
998	9.912800e-01	5.838418e-08	
999	9.922800e-01	4.770493e-08	
1000	9.932800e-01	3.267745e-08	
1001	9.942800e-01	1.413006e-08	
1002	9.952800e-01	-5.47952e-09	
1003	9.962800e-01	-2.48734e-08	
1004	9.972800e-01	-4.15121e-08	
1005	9.982800e-01	-5.44075e-08	
1006	9.992800e-01	-6.16571e-08	
1007	1.000000e+00	-6.29370e-08	
Note: No ".plot", ".print", or ".fourier" lines; no simulations run
